<?xml version="1.0" encoding="UTF-8"?>

<!-- generated on 02/12/23 12:30:37 by Eclipse SUMO duarouter Version 1.0.1
<configuration xmlns:xsi="http://www.w3.org/2001/XMLSchema-instance" xsi:noNamespaceSchemaLocation="http://sumo.dlr.de/xsd/duarouterConfiguration.xsd">

    <input>
        <net-file value="osm.net.xml"/>
        <route-files value="osm.passenger.trips.xml"/>
    </input>

    <output>
        <output-file value="osm.passenger.rou.xml"/>
        <alternatives-output value="osm.passenger.rou.alt.xml"/>
    </output>

    <time>
        <begin value="0"/>
        <end value="3600.0"/>
    </time>

    <report>
        <no-warnings value="true"/>
        <ignore-errors value="true"/>
        <no-step-log value="true"/>
    </report>

</configuration>
-->

<routes xmlns:xsi="http://www.w3.org/2001/XMLSchema-instance" xsi:noNamespaceSchemaLocation="http://sumo.dlr.de/xsd/routes_file.xsd">
    <vType id="veh_passenger" vClass="passenger"/>
    <vehicle id="veh0" type="veh_passenger" depart="0.00" departLane="best">
        <route edges="243808883#2 243808883#3 -590843156#1 -590843156#0 691028868 174124158#0 174124158#1 174124147#0 174124147#1 174124147#2 174124147#4 174124147#5 -174124178#2"/>
    </vehicle>
    <vehicle id="veh1" type="veh_passenger" depart="2.26" departLane="best">
        <route edges="-576073386#1 -576073386#0 -174184031#0 243808883#2 243808883#3 590843156#2 -174124184#3 -174124184#2 -174124184#1 -174124184#0 515362686#1 515362686#2 726160113 174124157#0 -174124153 -243803403#10 -243803403#9 -243803403#8 -243803403#6 -422253681#7"/>
    </vehicle>
    <vehicle id="veh2" type="veh_passenger" depart="4.52" departLane="best">
        <route edges="460242019#0 -460241212 -60892330#3 -60892330#2 -60892330#1 -60892331#4 -60892331#3 -60892355#4 60892351#1 60892351#3 60892351#5 60892351#6 174124157#2 726160112 515362686#0 174124184#0 174124184#1 174124184#2 174124184#3 -590843156#2 -243808883#3 -243808883#2 174184031#0 174184031#1 -578954743#1 -578954743#0 -243808875#3 -243808874#1 -1037941157#2 -1037941157#1 -1037941157#0 243809611#3"/>
    </vehicle>
    <vehicle id="veh3" type="veh_passenger" depart="6.79" departLane="best">
        <route edges="60892330#0 -60892330#0 60892351#0 60892351#1 60892351#3 60892351#5 60892351#6 174124157#2 726160112 515362686#0 174124184#0 174124184#1 174124184#2 174124184#3 -590843156#2 -243808883#3 -243808883#2 174184031#0 576073386#0 590843153#0 590843153#1 590843153#2 590843153#3 590843153#4 174184214#0 -174184214#0"/>
    </vehicle>
    <vehicle id="veh4" type="veh_passenger" depart="9.05" departLane="best">
        <route edges="-725918952#1 -725918952#0 -243808880#2 -174184031#6 -174184031#5 -174184031#4 -174184031#3 -174184031#2 -174184031#1 -174184031#0 243808883#2 243808883#3 -590843156#1 -590843156#0 691028868 174124158#0 -174124183#4 -174124183#3 -174124183#2 -174124183#1 -174124183#0"/>
    </vehicle>
    <vehicle id="veh5" type="veh_passenger" depart="11.31" departLane="best">
        <route edges="-174124171#1 -29989867#6 -29989867#5 -29989867#4 -29989867#3 174124190#2 -30005909#0"/>
    </vehicle>
    <vehicle id="veh6" type="veh_passenger" depart="13.57" departLane="best">
        <route edges="243809609#1 506297706#3 506297706#4 506297706#5 -506297707#3 -506297707#2 726172849 -576073386#5 -576073386#4 -576073386#3 -590843149#1 -590843153#1 -590843153#0 -576073386#0 -174184031#0 243808883#2 243808883#3 590843156#2 -174124184#3 174124184#3"/>
    </vehicle>
    <vehicle id="veh7" type="veh_passenger" depart="15.84" departLane="best">
        <route edges="-422253682#0 422253682#0 422253682#1 422253682#2 422253682#3 422253682#4 422253682#5 422253680#5 422253680#6 174124165#1 243803403#10 174124153 174124157#1 174124157#2 726160112 515362686#0 174124184#0 174124184#1 174124184#2 174124184#3 -590843156#2 -243808883#3 -243808883#2 174184031#0 576073386#0 590843153#0 590843153#1 590843153#2 590843153#3 590843153#4 174184214#0 174184214#1 174184214#2 174184214#3"/>
    </vehicle>
    <vehicle id="veh8" type="veh_passenger" depart="18.10" departLane="best">
        <route edges="576073400#0 -576073394#0 -576073401#0 321545025#2 321545025#3 576073382#0 576073382#1 578964733#0 578964733#1 -174124191#3 -174124191#2 -174124191#1 234827666#1 -60892348#1 -60892348#0 -174124168#10"/>
    </vehicle>
    <vehicle id="veh9" type="veh_passenger" depart="20.36" departLane="best">
        <route edges="-60892323#2 60892323#2 174124168#3 174124168#4 174124168#5 60892351#3 60892351#5 60892351#6 174124157#2 726160112 515362686#0 174124184#0 174124184#1 174124184#2 174124184#3 -590843156#2 -243808883#3 -243808883#2 174184031#0 174184031#1 -578954743#1 -243808876#3 -243808876#2"/>
    </vehicle>
    <vehicle id="veh11" type="veh_passenger" depart="24.89" departLane="best">
        <route edges="576073398#1 -576073398#1 -576073394#2 -576073394#1 -576073394#0 -576073401#0 -29989867#7 -29989867#6 -29989867#5 -29989867#4 -29989867#3 -29989867#2 -29989867#1 -29989867#0 -243803403#10 -243803403#9 -243803403#8 -60892323#4 -422253682#4 422253681#5"/>
    </vehicle>
    <vehicle id="veh12" type="veh_passenger" depart="27.15" departLane="best">
        <route edges="174183822#1 174183822#2 60892361#0 60892361#1 174124184#3 -590843156#2 -243808883#3 -243808883#2 174184031#0 576073386#0 590843153#0 590843153#1 590843153#2 590843153#3 590843151#1 576073386#5 725918952#3 725918952#4 -726172847 -506297706#5 174183924#4 -174183603#4 726160116#0 726160116#1"/>
    </vehicle>
    <vehicle id="veh13" type="veh_passenger" depart="29.41" departLane="best">
        <route edges="422253682#3 422253682#4 422253682#5 422253682#6 422253682#7 174124168#5 174124168#7 174124168#8 174124168#9 174124168#10 60892348#0 60892348#1 -234827666#1 -174124191#0"/>
    </vehicle>
    <vehicle id="veh14" type="veh_passenger" depart="31.67" departLane="best">
        <route edges="-460241214#1 243803403#2 243803403#3 576073418 29989812#1 174124178#0 174124178#1 174124178#2 174124178#3 174124178#4 -174124171#1 29989867#7 576073401#0 576073394#0 -576073394#0"/>
    </vehicle>
    <vehicle id="veh15" type="veh_passenger" depart="33.93" departLane="best">
        <route edges="-174183905#1 174183603#1 174183603#2 174183877#4 -590843157#1 -590843157#0 576073382#0 576073382#1 174124147#4 174124147#5 -174124178#2 -174124178#1 -174124178#0 -29989812#1 -576073418 -243803403#3 -243803403#2 -460241214#0"/>
    </vehicle>
    <vehicle id="veh16" type="veh_passenger" depart="36.20" departLane="best">
        <route edges="243808880#2 -243808880#2 -174184031#6 -174184031#5 -174184031#4 -174184031#3 -174184031#2 -174184031#1 -174184031#0 243808883#2 243808883#3 590843156#2 -174124184#3 -174124184#2 -174124184#1 -174124184#0 515362686#1 515362686#2 726160113 174124157#0 -174124153 -243803403#10 -243803403#9 -243803403#8 -60892323#4"/>
    </vehicle>
    <vehicle id="veh17" type="veh_passenger" depart="38.46" departLane="best">
        <route edges="-576073384#0 -243809611#1 -174184214#8 -174184214#7 -174184214#6 -174184214#5 -174184214#4 -174184214#3 -174184214#2 -174184214#1 -174184214#0 -243808880#2 -174184031#6 -174184031#5 -174184031#4 -174184031#3 -174184031#2 -174184031#1 -174184031#0 243808883#2 243808883#3 590843156#2 -174124184#3 -60892361#1 60892361#1"/>
    </vehicle>
    <vehicle id="veh19" type="veh_passenger" depart="42.98" departLane="best">
        <route edges="-243809609#1 -174184214#5 -174184214#4 -174184214#3 -174184214#2 -174184214#1 -174184214#0 -243808880#2 -174184031#6 -174184031#5 -174184031#4 -174184031#3 -174184031#2 -174184031#1 -174184031#0 243808883#2 243808883#3 590843156#2 -174124184#3 -174124184#2 -174124184#1 -174124184#0 515362686#1 515362686#2 726160113 174124157#0 174124157#1 -60892351#6 -60892351#5 -60892351#3 -174124168#5 -174124168#4 -174124168#3 -174124168#2 422253681#4"/>
    </vehicle>
    <vehicle id="veh20" type="veh_passenger" depart="45.25" departLane="best">
        <route edges="-243808885#0 174183603#2 174183877#4 590843157#2 590843157#3 174124158#0 174124158#1 174124158#2 -174124177#4 -174124177#3 -174124177#2 -174124177#1 -174124177#0 515362686#2 726160113 174124157#0 174124157#1 -60892351#6 -60892351#5 -60892351#3 -60892351#1 60892355#4 -60892331#2"/>
    </vehicle>
    <vehicle id="veh21" type="veh_passenger" depart="47.51" departLane="best">
        <route edges="726160116#2 -726160116#2 726172851 -174184224#1 -174184224#0 174183603#6 -515366120#3 -515366120#2 -515366120#1 174124148#0 -234829035 -174124184#3 -174124184#2 -174124191#3 -174124191#2 -243808873#1 243808873#1"/>
    </vehicle>
    <vehicle id="veh24" type="veh_passenger" depart="54.30" departLane="best">
        <route edges="-460241214#2 -60892321#1 -60892321#0 -60892326#0 243803403#3 576073418 29989812#1 174124178#0 174124178#1 174124178#2 174124178#3 174124183#1 -174124183#1"/>
    </vehicle>
    <vehicle id="veh25" type="veh_passenger" depart="56.56" departLane="best">
        <route edges="-590843153#0 -576073386#0 -174184031#0 243808883#2 243808883#3 590843156#2 -174124184#3 -174124184#2 -174124191#3 -174124191#2 -174124191#1 234827666#1 -60892348#1 -60892348#0 -576073357"/>
    </vehicle>
    <vehicle id="veh27" type="veh_passenger" depart="61.08" departLane="best">
        <route edges="60892322#2 422253681#1 422253678#0 60892323#2 174124168#3 174124168#4 174124168#5 60892351#3 60892351#5 60892351#6 174124157#2 726160112 515362686#0 515362686#1 174124177#0 174124177#1 174124177#2 174124177#3 174124177#4 174124158#3 691028868 -590843157#3 -590843157#2 -174183877#4 -174183877#3 -725928446#2 726171222 -576073402#0"/>
    </vehicle>
    <vehicle id="veh28" type="veh_passenger" depart="63.34" departLane="best">
        <route edges="243809611#3 243809611#4 -576073385#0 243808875#2 243808875#3 243808880#0 -174184031#6 -174184031#5 -174184031#4 -174184031#3 -174184031#2 -174184031#1 -174184031#0 243808883#2 243808883#3 590843156#2 -174124184#3 -174124184#2 -174124191#3 -174124191#2 -174124191#1 234827666#1 -60892348#1 -60892348#0"/>
    </vehicle>
    <vehicle id="veh29" type="veh_passenger" depart="65.61" departLane="best">
        <route edges="60892347 60892348#0 60892348#1 -234827666#1 174124191#1 -243808873#1 -243808873#0 578964735#1 578964735#2 578964735#3 -590843156#2 -243808883#3 -243808883#2 -243808883#1 -243808883#0 -174183603#6 174184224#0 174184224#1 -726172851 -726160116#1"/>
    </vehicle>
    <vehicle id="veh30" type="veh_passenger" depart="67.87" departLane="best">
        <route edges="-576073381#2 174124178#1 174124178#2 174124178#3 174124178#4 -174124171#1 -174124171#0 590843157#0 590843157#1 -174183877#4 174183603#3 174183603#4 -174183924#4 -506297706#4 -506297706#3"/>
    </vehicle>
    <vehicle id="veh31" type="veh_passenger" depart="70.13" departLane="best">
        <route edges="174184214#2 -174184214#2 -174184214#1 -174184214#0 -243808880#2 -174184031#6 -174184031#5 -174184031#4 -174184031#3 -174184031#2 -174184031#1 -174184031#0 243808883#2 243808883#3 590843156#2 -174124184#3 -174124184#2 -174124184#1 174124162 -174183822#0 578964732 60892349#3 243803403#15 -576073344"/>
    </vehicle>
    <vehicle id="veh32" type="veh_passenger" depart="72.39" departLane="best">
        <route edges="174184459#5 174184459#6 174124148#0 -234829035 -174124184#3 -174124184#2 -174124184#1 -174124184#0 515362686#1 515362686#2 726160113 174124157#0 174124157#1 -60892351#6 -60892351#5 -60892351#3 -174124168#5 -174124168#4 -174124168#3 -174124168#2 -174124168#1 -174124168#0 -60892335 -60892338#1 60892338#1"/>
    </vehicle>
    <vehicle id="veh34" type="veh_passenger" depart="76.92" departLane="best">
        <route edges="726172851 -174184224#1 -174184224#0 174183603#6 -515366120#3 -515366120#2 -515366120#1 174124148#0 -234829035 -174124184#3 -174124184#2 -174124191#3 -174124191#2 -174124191#1 -174124191#0 174124168#13"/>
    </vehicle>
    <vehicle id="veh35" type="veh_passenger" depart="79.18" departLane="best">
        <route edges="-174184031#6 -174184031#5 -174184031#4 -174184031#3 -174184031#2 -174184031#1 -174184031#0 243808883#2 243808883#3 590843156#2 -174124184#3 -174124184#2 -174124191#3 -174124191#2"/>
    </vehicle>
    <vehicle id="veh37" type="veh_passenger" depart="83.71" departLane="best">
        <route edges="576073394#3 -576073394#3 -576073394#2 -576073394#1 -576073394#0 -576073401#0 321545025#2 321545025#3 576073382#0 576073382#1 578964733#0 578964733#1 -174124191#3 -174124191#2 -174124191#1 234827666#1 -60892348#1 -60892348#0 -174124168#10 60892356#0 60892356#1 60892356#2 -60892356#2"/>
    </vehicle>
    <vehicle id="veh38" type="veh_passenger" depart="85.97" departLane="best">
        <route edges="-174183603#5 174183603#5 174183603#6 -515366120#3 -515366120#2 -515366120#1 174124148#0 -234829035 -174124184#3 -174124184#2 -174124184#1 -174124184#0 515362686#1 515362686#2 726160113 174124157#0 174124157#1 -60892351#6 -60892351#5 -60892351#3 -60892351#1 -60892351#0 60892330#0 -60892331#4"/>
    </vehicle>
    <vehicle id="veh40" type="veh_passenger" depart="90.49" departLane="best">
        <route edges="-174124168#10 -174124168#9 -174124168#8 -174124168#7 -60892351#1 60892355#4 60892331#3 60892322#0 422253680#1"/>
    </vehicle>
    <vehicle id="veh41" type="veh_passenger" depart="92.76" departLane="best">
        <route edges="-174184419#4 -174184419#3 -60892363#2"/>
    </vehicle>
    <vehicle id="veh43" type="veh_passenger" depart="97.28" departLane="best">
        <route edges="60892322#1 -60892322#1 422253680#1 -576073336 -60892331#1 174124168#5 174124168#7 174124168#8 -576073344"/>
    </vehicle>
    <vehicle id="veh44" type="veh_passenger" depart="99.54" departLane="best">
        <route edges="174124178#1 174124190#1 174124190#2 174124190#3 174124190#4 174124184#1 174124184#2 174124184#3 -590843156#2 -243808883#3 -243808883#2 174184031#0 576073386#0 590843153#0 590843153#1 590843153#2 590843153#3 590843153#4 174184214#0 174184214#1 174184214#2 174184214#3 174184214#4 174184214#5 174184214#6 174184214#7 -243809606#0 -576073384#0 -243809611#1"/>
    </vehicle>
    <vehicle id="veh45" type="veh_passenger" depart="101.80" departLane="best">
        <route edges="-576073402#3 -726160116#2 726172851 -174184224#1 -174184224#0 174183603#6 -515366120#3 -515366120#2 -515366120#1 174124148#0 -234829035 -174124184#3 -174124184#2 -174124191#3 -174124191#2 -243808873#1 -243808873#0 243808873#0"/>
    </vehicle>
    <vehicle id="veh46" type="veh_passenger" depart="104.07" departLane="best">
        <route edges="243803403#6 243803403#8 243803403#9 243803403#10 174124153 174124157#1 174124157#2 726160112 515362686#0 174124184#0 174124184#1 174124184#2 174124184#3 -590843156#2 -243808883#3 -243808883#2 174184031#0 174184031#1 -578954743#1 -243808876#3 -243808876#2 -243808876#1 -243808876#0"/>
    </vehicle>
    <vehicle id="veh47" type="veh_passenger" depart="106.33" departLane="best">
        <route edges="576073342 -576073342 422253680#6 174124165#1 243803403#10 29989867#0 29989867#1 29989867#2 29989867#3 29989867#4 29989867#5 174124183#2 174124183#3"/>
    </vehicle>
    <vehicle id="veh48" type="veh_passenger" depart="108.59" departLane="best">
        <route edges="-1037941157#0 1037941157#0 -576073385#1 -576073385#0 243808875#2 243808875#3 243808880#0 -174184031#6 -174184031#5 -174184031#4 -174184031#3 -174184031#2 -174184031#1 -174184031#0 243808883#2 243808883#3 590843156#2 -174124184#3 -174124184#2 -174124184#1 -174124184#0 515362686#1 515362686#2 726160128 -29989812#3 -29989812#2 -29989812#1 -576073418"/>
    </vehicle>
    <vehicle id="veh49" type="veh_passenger" depart="110.85" departLane="best">
        <route edges="60892322#4 -60892322#4 -60892326#5 -60892326#4 -60892326#3 422253682#2 576073341 422253681#6 422253681#7 576073418"/>
    </vehicle>
    <vehicle id="veh51" type="veh_passenger" depart="115.38" departLane="best">
        <route edges="-174184031#1 -174184031#0 243808883#2 243808883#3 -590843156#1 -590843156#0 691028868 174124158#0 174124158#1 174124147#0 174124147#1 174124147#2 174124147#4 174124147#5 174124147#6 174124147#7"/>
    </vehicle>
    <vehicle id="veh52" type="veh_passenger" depart="117.64" departLane="best">
        <route edges="-174183822#1 -174183822#0 578964732 60892349#3 -243803403#14 -60892351#5 -60892351#3 -174124168#5 -174124168#4 -174124168#3 -174124168#2 -174124168#1 60892326#4 60892313#1 460241214#8"/>
    </vehicle>
    <vehicle id="veh54" type="veh_passenger" depart="122.17" departLane="best">
        <route edges="-576073381#2 -174124178#0 -29989812#1 -576073418 243803403#6 -60892323#4 -60892323#3 -60892323#2 -60892323#1 60892322#2"/>
    </vehicle>
    <vehicle id="veh55" type="veh_passenger" depart="124.43" departLane="best">
        <route edges="-725918952#4 -725918952#3 -576073386#5 -576073386#4 -576073386#3 -590843149#1 -590843153#1 -590843153#0 -576073386#0 -174184031#0 243808883#2 243808883#3 590843156#2 -174124184#3 -174124184#2 -174124184#1 -174124184#0 515362686#1 515362686#2 726160113 174124157#0 174124157#1 -60892351#6 -60892351#5 -60892351#3 -174124168#5 -174124168#4 -422253680#3 -422253680#1"/>
    </vehicle>
    <vehicle id="veh56" type="veh_passenger" depart="126.69" departLane="best">
        <route edges="174183860 174183769 -234829035 -174124184#3 -174124184#2 -174124184#1 -174124184#0 515362686#1 515362686#2 726160113 174124157#0 -174124153 -243803403#10 -243803403#9 -243803403#8 -60892323#4 -422253682#4 422253681#5"/>
    </vehicle>
    <vehicle id="veh58" type="veh_passenger" depart="131.21" departLane="best">
        <route edges="-726172846 726172846 -725918952#0 -243808880#2 -174184031#6 -174184031#5 -174184031#4 -174184031#3 -174184031#2 -174184031#1 -174184031#0 243808883#2 243808883#3 590843156#2 -174124184#3 -174124184#2 -174124184#1 -174124184#0 515362686#1 515362686#2 726160113 174124157#0 174124157#1 -60892351#6 -60892351#5 -60892351#3 174124168#7"/>
    </vehicle>
    <vehicle id="veh59" type="veh_passenger" depart="133.48" departLane="best">
        <route edges="-234829035 -174124184#3 -174124184#2 -174124184#1 -174124184#0 515362686#1 515362686#2 726160113 174124157#0 -174124153 -243803403#10 -243803403#9 -243803403#8 -243803403#6 -422253681#7 -422253681#6 -576073341 -422253682#2 -422253682#1"/>
    </vehicle>
    <vehicle id="veh60" type="veh_passenger" depart="135.74" departLane="best">
        <route edges="-60892323#0 -60892330#2 -60892330#1 -60892331#4 -60892331#3 -60892355#4 60892351#1 60892351#3 60892351#5 60892351#6 174124157#2 726160112 515362686#0 174124184#0 174124184#1 174124184#2 174124184#3 -590843156#2 -243808883#3 -243808883#2 174184031#0 576073386#0 590843153#0 590843153#1 590843153#2 590843153#3 590843153#4 174184214#0 174184214#1 174184214#2"/>
    </vehicle>
    <vehicle id="veh61" type="veh_passenger" depart="138.00" departLane="best">
        <route edges="-174183822#3 -174183822#2 -174183822#1 -174183822#0 234827666#3 592439460 515362686#0 515362686#1 515362686#2 726160113 174124157#0 -174124153 -243803403#10 -243803403#9 -243803403#8 -243803403#6 243803403#6"/>
    </vehicle>
    <vehicle id="veh62" type="veh_passenger" depart="140.26" departLane="best">
        <route edges="590843153#3 590843151#1 576073386#5 725918952#3 725918952#4 -726172847 -506297706#5 174183924#4 -174183603#4 726160116#0 726160116#1 726160116#2 -576073402#2 -174183877#0"/>
    </vehicle>
    <vehicle id="veh63" type="veh_passenger" depart="142.53" departLane="best">
        <route edges="-422253681#1 422253681#1 422253681#3 422253681#4 422253681#5 422253681#6 422253681#7 -243803403#3"/>
    </vehicle>
    <vehicle id="veh64" type="veh_passenger" depart="144.79" departLane="best">
        <route edges="60892351#5 60892351#6 174124157#2 726160112 515362686#0 515362686#1 174124177#0 174124177#1 174124177#2 174124177#3 174124177#4 174124158#3 691028868 -590843157#3 -590843157#2 -174183877#4 -174183603#2 -174183603#1 174183905#1"/>
    </vehicle>
    <vehicle id="veh65" type="veh_passenger" depart="147.05" departLane="best">
        <route edges="174124157#1 174124157#2 726160112 515362686#0 174124184#0 174124184#1 174124184#2 174124184#3 234829035 174124148#2 174184459#6 515366120#1 515366120#2"/>
    </vehicle>
    <vehicle id="veh66" type="veh_passenger" depart="149.31" departLane="best">
        <route edges="576073398#1 -576073398#1 -576073394#2 -576073394#1 -576073394#0 -576073401#0 -29989867#7 -29989867#6 -29989867#5 -29989867#4 -29989867#3 -29989867#2 -29989867#1 -29989867#0"/>
    </vehicle>
    <vehicle id="veh68" type="veh_passenger" depart="153.84" departLane="best">
        <route edges="460241214#0 243803403#2 243803403#3 243803403#6 243803403#8 243803403#9 243803403#10 174124153 174124157#1 174124157#2 726160112 515362686#0 174124184#0 174124184#1 174124184#2 174124184#3 -590843156#2 -243808883#3 -243808883#2 174184031#0 576073386#0 590843153#0 590843153#1 590843153#2 590843153#3 590843153#4 174184214#0 174184214#1 174184214#2 174184214#3 174184214#4 243809610#1"/>
    </vehicle>
    <vehicle id="veh70" type="veh_passenger" depart="158.36" departLane="best">
        <route edges="-29989867#3 174124190#2 174124190#3 174124190#4 174124184#1 174124184#2 174124184#3 -590843156#2 -243808883#3 -243808883#2 174184031#0 576073386#0 590843153#0 590843153#1 590843153#2 590843153#3 590843153#4 725918952#0 -725918952#0"/>
    </vehicle>
    <vehicle id="veh71" type="veh_passenger" depart="160.62" departLane="best">
        <route edges="-726172850 -576073402#3 -576073402#2 174183877#1 174183877#3 174183877#4 -590843157#1 590843157#1"/>
    </vehicle>
    <vehicle id="veh72" type="veh_passenger" depart="162.89" departLane="best">
        <route edges="174183924#3 174183924#4 -174183603#4 -174183603#3 -174183603#2 -174183603#1 -174183603#0"/>
    </vehicle>
    <vehicle id="veh73" type="veh_passenger" depart="165.15" departLane="best">
        <route edges="728815447 460242019#3 460241195#0 -60892327 60892336#1 -60892313#1 -60892326#4 174124168#1 422253681#4 422253682#4 422253682#5 422253680#5 422253680#6 174124165#1 243803403#10 29989867#0 29989867#1 -576073381#0 -30005909#0 578964733#0"/>
    </vehicle>
    <vehicle id="veh76" type="veh_passenger" depart="171.94" departLane="best">
        <route edges="-60892349#0 60892348#1 -234827666#1 174124191#1 -243808873#1 -243808873#0 578964735#1 578964735#2 578964735#3 -590843156#2 -243808883#3 -243808883#2 174184031#0 576073386#0 590843153#0 590843153#1 590843153#2 590843153#3 590843151#1 576073386#5 725918952#3 -726172848 726172848"/>
    </vehicle>
    <vehicle id="veh77" type="veh_passenger" depart="174.20" departLane="best">
        <route edges="-576073381#2 174124178#1 174124190#1 174124190#2 174124190#3 174124190#4 174124184#1 174124184#2 174124184#3 234829035 174124148#2 174184459#6 515366120#1"/>
    </vehicle>
    <vehicle id="veh78" type="veh_passenger" depart="176.46" departLane="best">
        <route edges="1037941157#1 1037941157#2 243808874#1 243808875#3 243808880#0 -174184031#6 -174184031#5 -174184031#4 -174184031#3 -174184031#2 -174184031#1 -174184031#0 243808883#2 243808883#3 590843156#2 -174124184#3 -60892361#1 -60892358"/>
    </vehicle>
    <vehicle id="veh80" type="veh_passenger" depart="180.99" departLane="best">
        <route edges="174184031#3 -174184031#3 -174184031#2 -174184031#1 -174184031#0 243808883#2 243808883#3 590843156#2 -174124184#3 -174124184#2 -174124184#1 -174124184#0 515362686#1 515362686#2 726160113 174124157#0 174124157#1 -60892351#6 -60892351#5 -60892351#3 -174124168#5 -174124168#4 -174124168#3 -60892323#2 422253678#1"/>
    </vehicle>
    <vehicle id="veh81" type="veh_passenger" depart="183.25" departLane="best">
        <route edges="-243808883#2 243808883#2 243808883#3 -590843156#1 -590843156#0 691028868 -590843157#3 -590843157#2 -590843157#1 -590843157#0 -321545025#3 -321545025#2 576073401#0 576073394#0 576073394#1 576073394#2 576073394#3 -576073395#0"/>
    </vehicle>
    <vehicle id="veh83" type="veh_passenger" depart="187.77" departLane="best">
        <route edges="174183877#0 174183877#1 174183877#3 174183877#4 590843157#2 590843157#3 174124158#0 174124158#1 174124158#2 -174124177#4 -174124177#3 -174124177#2 -174124177#1 -174124177#0 515362686#2 726160113 174124157#0 174124157#1 -60892351#6 -60892351#5 -60892351#3 -60892351#1 -60892351#0 60892330#0 60892330#1 60892330#2 60892330#3 460241212 460242019#1 460242019#2 460242019#3 460241195#0"/>
    </vehicle>
    <vehicle id="veh84" type="veh_passenger" depart="190.03" departLane="best">
        <route edges="-174124191#1 174124191#1 -243808873#1 -243808873#0 578964735#1 578964735#2 578964735#3 -590843156#2 -243808883#3 -243808883#2 174184031#0 174184031#1 174184031#2 174184031#3 174184031#4 174184031#5"/>
    </vehicle>
    <vehicle id="veh85" type="veh_passenger" depart="192.30" departLane="best">
        <route edges="174124178#3 174124183#1 174124183#2 174124183#3 174124183#4 174124158#1 174124158#2 174124158#3 590843156#0 590843156#1 -243808883#3 -243808883#2 174184031#0 576073386#0 590843153#0 590843153#1"/>
    </vehicle>
    <vehicle id="veh86" type="veh_passenger" depart="194.56" departLane="best">
        <route edges="-243808884#2 -243808885#1 725928446#1 725928446#2 -725941602#1 -726160116#0 174183603#4 -174183924#4 506297706#5 -506297707#3 -506297707#2 -506297707#1 726172846 -725918952#0 725918952#0"/>
    </vehicle>
    <vehicle id="veh87" type="veh_passenger" depart="196.82" departLane="best">
        <route edges="-174183905#1 174183603#1 174183603#2 174183877#4 -590843157#1 -590843157#0 576073382#0 576073382#1 174124147#4 174124147#5 -174124178#2 -174124178#1 -174124178#0 -29989812#1 -29989812#0"/>
    </vehicle>
    <vehicle id="veh88" type="veh_passenger" depart="199.08" departLane="best">
        <route edges="234829035 -174183769 576073383 243808883#1 174184031#0 576073386#0 590843153#0 590843153#1 590843153#2 590843153#3 590843153#4 174184214#0 174184214#1 174184214#2 174184214#3 174184214#4 174184214#5 174184214#6 174184214#7 174184214#8 243809611#1"/>
    </vehicle>
    <vehicle id="veh89" type="veh_passenger" depart="201.35" departLane="best">
        <route edges="-506297706#0 -174184214#8 -174184214#7 -174184214#6 -174184214#5 -174184214#4 -174184214#3 -174184214#2 -174184214#1 -174184214#0 -243808880#2 -174184031#6 -174184031#5 -174184031#4 -174184031#3 -174184031#2 -174184031#1 -174184031#0 243808883#2 243808883#3 590843156#2 -174124184#3 -174124184#2 -174124184#1 174124162 -174183822#0 234827666#3 -234827666#3"/>
    </vehicle>
    <vehicle id="veh90" type="veh_passenger" depart="203.61" departLane="best">
        <route edges="60892327 -60892327 60892336#1 -60892313#1 -60892326#4 174124168#1 174124168#2 174124168#3 174124168#4 174124168#5 60892351#3 60892351#5 60892351#6 174124157#2 726160112 515362686#0 174124184#0 174124184#1 174124184#2 174124184#3 -590843156#2 -243808883#3 -243808883#2 174184031#0 576073386#0 590843153#0 590843153#1 590843153#2 590843153#3 590843151#1 576073386#5 725918952#3 725918952#4 -726172847 -506297706#5 -506297706#4 -506297706#3 -506297706#2"/>
    </vehicle>
    <vehicle id="veh92" type="veh_passenger" depart="208.13" departLane="best">
        <route edges="174124191#0 174124191#1 -243808873#1 -243808873#0 578964735#1 578964735#2 60892358"/>
    </vehicle>
    <vehicle id="veh93" type="veh_passenger" depart="210.40" departLane="best">
        <route edges="-506297706#4 506297706#4 506297706#5 -506297707#3 -506297707#2 726172849 -576073386#5 -576073386#4 -576073386#3 -590843149#1 -590843153#1 -590843153#0 -576073386#0 -174184031#0 243808883#2 243808883#3 590843156#2 -174124184#3 -174124184#2 -174124191#3 -174124191#2 -174124191#1 234827666#1 -60892348#1 -60892348#0"/>
    </vehicle>
    <vehicle id="veh94" type="veh_passenger" depart="212.66" departLane="best">
        <route edges="29989867#5 29989867#6 29989867#7 576073401#0 576073401#1 -576073396#2"/>
    </vehicle>
    <vehicle id="veh95" type="veh_passenger" depart="214.92" departLane="best">
        <route edges="-590843153#0 -576073386#0 -174184031#0 243808883#2 243808883#3 590843156#2 -174124184#3 -174124184#2 -174124184#1 -174124184#0 515362686#1 515362686#2 726160113 174124157#0 174124157#1 -60892351#6 -60892351#5 -60892351#3 -174124168#5 -174124168#4 -174124168#3 -174124168#2 -174124168#1 -174124168#0 -60892335 60892339 243803404#1 460241195#2"/>
    </vehicle>
    <vehicle id="veh96" type="veh_passenger" depart="217.18" departLane="best">
        <route edges="728815446 -460241214#9 -60892322#4 -60892326#5 -60892326#4 174124168#1 174124168#2 174124168#3 174124168#4 174124168#5 174124168#7 174124168#8 174124168#9 174124168#10 60892348#0 60892348#1 -234827666#1 174124191#1 -243808873#1 782006659"/>
    </vehicle>
    <vehicle id="veh97" type="veh_passenger" depart="219.44" departLane="best">
        <route edges="-174183877#1 174183877#1 174183877#3 174183877#4 590843157#2 590843157#3 174124158#0 174124158#1 174124158#2 -174124177#4 -174124177#3 -174124177#2 -174124177#1 -174124177#0 515362686#2 726160113 174124157#0 174124157#1 -60892351#6 -60892351#5 -60892351#3 -174124168#5 -174124168#4 -422253680#3"/>
    </vehicle>
    <vehicle id="veh98" type="veh_passenger" depart="221.71" departLane="best">
        <route edges="-576073381#2 -576073381#1 -29989867#1 29989812#3 726160129 174124157#0 174124157#1 -60892351#6 243803403#14 243803403#15 174124168#9 60892356#0 60892356#1 60892356#2"/>
    </vehicle>
    <vehicle id="veh99" type="veh_passenger" depart="223.97" departLane="best">
        <route edges="60892323#1 60892323#2 60892323#3 60892323#4"/>
    </vehicle>
    <vehicle id="veh100" type="veh_passenger" depart="226.23" departLane="best">