<?xml version="1.0" encoding="UTF-8"?>

<!-- generated on 02/12/23 12:30:36 by Eclipse SUMO polyconvert Version 1.0.1
<configuration xmlns:xsi="http://www.w3.org/2001/XMLSchema-instance" xsi:noNamespaceSchemaLocation="http://sumo.dlr.de/xsd/polyconvertConfiguration.xsd">

    <input>
        <net-file value="E:\Taxk\Morroco_Maroua_unity\sumo-1.0.1\tools\2023-02-12-12-30-32\osm.net.xml"/>
        <osm-files value="E:\Taxk\Morroco_Maroua_unity\sumo-1.0.1\tools\2023-02-12-12-30-32\osm_bbox.osm.xml"/>
        <osm.keep-full-type value="true"/>
        <type-file value="E:\Taxk\Morroco_Maroua_unity\sumo-1.0.1\data\typemap\osmPolyconvert.typ.xml"/>
    </input>

    <output>
        <output-file value="E:\Taxk\Morroco_Maroua_unity\sumo-1.0.1\tools\2023-02-12-12-30-32\osm.poly.xml"/>
    </output>

    <processing>
        <poi-layer-offset value="5"/>
    </processing>

    <report>
        <verbose value="true"/>
    </report>

</configuration>
-->

<additional xmlns:xsi="http://www.w3.org/2001/XMLSchema-instance" xsi:noNamespaceSchemaLocation="http://sumo.dlr.de/xsd/additional_file.xsd">
    <location netOffset="-647358.29,-3728180.52" convBoundary="-446.86,-2002.32,4469.25,2973.86" origBoundary="-7.414870,33.665160,-7.361950,33.709985" projParameter="+proj=utm +zone=29 +ellps=WGS84 +datum=WGS84 +units=m +no_defs"/>

    <poly id="1111553475" type="building.yes" color="255,230,230" fill="1" layer="-1.00" shape="1778.184024,1315.897931 1793.415642,1311.809583 1804.294588,1352.019979 1789.063027,1356.108308 1778.184024,1315.897931"/>
    <poly id="1111553476" type="building.yes" color="255,230,230" fill="1" layer="-1.00" shape="1829.001271,1401.463472 1820.110244,1404.430521 1817.726829,1397.339079 1813.943043,1398.599999 1816.920170,1407.453175 1807.358155,1410.642700 1804.159667,1401.120579 1802.603275,1401.639809 1799.254120,1391.671675 1823.056298,1383.757258 1829.001271,1401.463472"/>
    <poly id="1111553477" type="building.yes" color="255,230,230" fill="1" layer="-1.00" shape="1712.619170,1290.774222 1742.231948,1299.099538 1738.965312,1310.606129 1709.361837,1302.280966 1712.619170,1290.774222"/>
    <poly id="1111553478" type="building.yes" color="255,230,230" fill="1" layer="-1.00" shape="1701.652250,1308.560747 1729.285829,1317.165762 1726.555538,1317.455975 1735.154753,1320.129934 1735.681742,1324.985190 1732.487136,1325.323625 1732.924606,1329.378889 1731.285859,1334.588610 1728.657705,1334.869321 1717.761044,1331.482987 1717.291501,1327.105567 1710.980481,1325.143859 1703.513987,1325.937065 1701.652250,1308.560747"/>
    <poly id="1111553479" type="building.yes" color="255,230,230" fill="1" layer="-1.00" shape="1736.323946,1278.410318 1743.411811,1281.094010 1742.793363,1282.703753 1747.070040,1284.323218 1745.485115,1288.457887 1741.208439,1286.838423 1739.797271,1290.532135 1732.718682,1287.848590 1736.323946,1278.410318"/>
    <poly id="1111553480" type="building.yes" color="255,230,230" fill="1" layer="-1.00" shape="1696.592577,1336.377399 1687.918699,1342.664353 1677.578684,1328.538941 1686.243298,1322.251833 1696.592577,1336.377399"/>
    <poly id="1111553481" type="building.yes" color="255,230,230" fill="1" layer="-1.00" shape="1690.086677,1343.951475 1700.267437,1339.728856 1705.363034,1351.864839 1695.182111,1356.098541 1690.086677,1343.951475"/>
    <poly id="1111584557" type="building.yes" color="255,230,230" fill="1" layer="-1.00" shape="1677.022457,1423.186294 1691.717571,1428.528422 1687.902550,1438.939504 1673.207450,1433.597382 1677.022457,1423.186294"/>
    <poly id="1111584558" type="building.yes" color="255,230,230" fill="1" layer="-1.00" shape="1667.535169,1419.200831 1663.982177,1428.861771 1667.291775,1430.066843 1665.191128,1435.768504 1644.245844,1428.132948 1646.752871,1421.339540 1648.956241,1422.139173 1652.102655,1413.581060 1667.535169,1419.200831"/>
    <poly id="1111584559" type="building.yes" color="255,230,230" fill="1" layer="-1.00" shape="1651.491494,1493.908256 1657.634664,1476.279488 1670.351222,1480.670169 1664.208030,1498.298931 1651.491494,1493.908256"/>
    <poly id="1111584560" type="building.yes" color="255,230,230" fill="1" layer="-1.00" shape="1642.740748,1514.668632 1645.959605,1503.837860 1660.891912,1508.229760 1657.673039,1519.060527 1642.740748,1514.668632"/>
    <poly id="1111584561" type="building.yes" color="255,230,230" fill="1" layer="-1.00" shape="1639.236915,1494.382929 1635.984676,1506.167063 1631.894961,1505.049679 1630.745409,1509.213326 1614.026440,1504.649467 1615.490717,1499.326096 1613.090300,1498.678685 1614.426830,1493.819174 1612.100390,1493.184007 1612.935204,1490.180080 1629.414070,1494.684739 1630.180381,1491.912670 1639.236915,1494.382929"/>
    <poly id="1111584562" type="building.yes" color="255,230,230" fill="1" layer="-1.00" shape="1563.039872,1521.624609 1567.100479,1509.719937 1577.190240,1513.115732 1576.015028,1516.546938 1586.639612,1520.128534 1583.744754,1528.612939 1563.039872,1521.624609"/>
    <poly id="1111584563" type="building.yes" color="255,230,230" fill="1" layer="-1.00" shape="1694.219982,1581.543279 1683.828194,1583.854844 1680.257468,1567.871633 1690.639829,1565.571008 1694.219982,1581.543279"/>
    <poly id="1111584564" type="building.yes" color="255,230,230" fill="1" layer="-1.00" shape="1633.150597,1547.661109 1635.739788,1537.375112 1648.419825,1540.534028 1645.839891,1550.820167 1633.150597,1547.661109"/>
    <poly id="1111584565" type="building.yes" color="255,230,230" fill="1" layer="-1.00" shape="1673.803974,1404.224928 1679.259830,1387.872097 1686.150098,1390.142282 1684.837123,1394.081546 1704.732759,1400.658224 1702.087396,1408.591903 1681.518421,1401.794002 1680.020876,1406.273882 1673.803974,1404.224928"/>
    <poly id="1111584566" type="building.yes" color="255,230,230" fill="1" layer="-1.00" shape="1673.420362,1449.095713 1668.820890,1447.371426 1671.798517,1439.531647 1682.084985,1443.396463 1681.505013,1444.918076 1686.316288,1446.734401 1682.932257,1455.665918 1672.424730,1451.708925 1673.420362,1449.095713"/>
    <poly id="1111584567" type="building.yes" color="255,230,230" fill="1" layer="-1.00" shape="1605.848809,1423.686338 1610.306094,1424.421224 1610.796234,1421.522847 1620.737070,1423.174979 1619.061065,1433.164631 1605.143908,1430.851650 1605.674746,1427.720982 1605.184700,1427.635712 1605.848809,1423.686338"/>
    <poly id="1111584568" type="building.yes" color="255,230,230" fill="1" layer="-1.00" shape="1612.073584,1439.522269 1611.607786,1440.857105 1616.633123,1442.621269 1613.384738,1451.776752 1600.355737,1447.203820 1604.069908,1436.713496 1612.073584,1439.522269"/>
    <poly id="1111584569" type="building.yes" color="255,230,230" fill="1" layer="-1.00" shape="1587.696081,1429.027224 1584.484462,1428.078812 1585.912813,1423.276185 1603.585724,1428.509243 1601.669061,1434.901461 1595.707379,1433.133822 1592.088511,1445.245010 1588.184835,1444.086175 1588.732376,1442.264578 1584.145902,1440.895468 1587.696081,1429.027224"/>
    <poly id="1111584570" type="building.yes" color="255,230,230" fill="1" layer="-1.00" shape="1642.039774,1376.300668 1644.224271,1377.122188 1645.461815,1373.858335 1650.273305,1375.663551 1648.948885,1379.147884 1651.796952,1380.223755 1652.676521,1377.919300 1659.239105,1380.395104 1654.628357,1392.490827 1638.231007,1386.312566 1642.039774,1376.300668"/>
    <poly id="1111584571" type="building.yes" color="255,230,230" fill="1" layer="-1.00" shape="1669.707356,1279.125134 1674.944765,1288.113280 1665.355348,1293.653949 1667.712414,1297.683644 1669.742457,1296.517362 1671.981786,1300.367757 1665.535806,1304.093987 1663.287207,1300.243448 1658.675067,1302.900168 1651.090021,1289.871395 1669.707356,1279.125134"/>
    <poly id="1111584572" type="building.yes" color="255,230,230" fill="1" layer="-1.00" shape="1646.626662,1321.080299 1637.983829,1325.970235 1629.933186,1311.880525 1638.576026,1306.990582 1646.626662,1321.080299"/>
    <poly id="1111584573" type="building.yes" color="255,230,230" fill="1" layer="-1.00" shape="1597.273929,1331.303762 1596.358295,1329.969605 1602.917408,1325.524137 1609.434790,1335.075660 1596.307479,1343.955359 1590.705726,1335.738000 1597.273929,1331.303762"/>
    <poly id="1111584574" type="building.yes" color="255,230,230" fill="1" layer="-1.00" shape="1610.496467,1377.650776 1604.092599,1375.698784 1604.414876,1374.650096 1596.968267,1372.382402 1601.509320,1357.612488 1609.186630,1359.950325 1607.253312,1366.220276 1613.426496,1368.102129 1610.496467,1377.650776"/>
    <poly id="1111584575" type="building.yes" color="255,230,230" fill="1" layer="-1.00" shape="1627.827525,1371.498538 1636.672369,1373.876760 1633.957004,1383.927867 1618.584530,1379.806459 1620.659757,1372.163358 1627.178133,1373.906403 1627.827525,1371.498538"/>
    <poly id="1111584576" type="building.yes" color="255,230,230" fill="1" layer="-1.00" shape="1848.014679,1295.745976 1839.020998,1307.074512 1824.925457,1295.973857 1823.100218,1298.274647 1822.559845,1298.443690 1823.970295,1303.124168 1824.748660,1303.746342 1826.026641,1308.003273 1828.336612,1307.318328 1832.934372,1310.939334 1829.387931,1315.409434 1826.750245,1313.327451 1822.097372,1319.188944 1815.969998,1314.368384 1818.296520,1311.432092 1815.191465,1308.998985 1806.677775,1280.615862 1807.226273,1279.925638 1803.654184,1277.119232 1801.309761,1269.307449 1805.688308,1263.796602 1806.936421,1263.427850 1848.014679,1295.745976"/>
    <poly id="1111584577" type="building.yes" color="255,230,230" fill="1" layer="-1.00" shape="1763.324840,1379.975695 1759.718550,1381.150669 1758.577964,1385.924484 1763.584659,1387.100577 1765.354650,1392.507606 1760.080400,1394.222260 1757.826539,1393.688014 1756.685096,1390.187452 1751.050183,1388.868474 1752.847295,1394.320289 1752.519992,1395.690552 1748.121697,1397.119389 1745.489018,1396.501601 1748.303288,1395.580480 1750.069457,1388.143327 1745.820401,1387.134329 1746.415763,1384.625804 1750.692875,1383.239445 1749.852233,1380.664177 1756.341491,1353.335670 1759.407249,1352.340829 1775.157048,1356.046862 1776.254563,1359.391458 1778.942693,1360.021209 1788.326388,1356.973066 1796.796727,1382.782240 1767.378403,1392.339494 1763.324840,1379.975695"/>
    <poly id="174184473" type="leisure.stadium" color="207,245,201" fill="1" layer="-2.00" shape="949.404450,1439.677077 959.506279,1453.077012 971.963308,1463.463279 984.831850,1469.430397 999.094366,1473.389382 1013.757765,1473.616737 1028.129614,1471.122151 1042.871266,1466.304085 1054.682521,1457.946737 1044.116400,1442.809204 1052.318717,1431.622983 1069.496015,1435.349989 1091.646060,1334.271988 1074.468585,1330.544949 1071.321712,1315.256280 1088.935048,1308.220130 1081.744060,1294.843029 1070.059208,1283.082154 1054.036301,1274.248747 1033.320710,1268.492613 1013.192167,1268.524348 995.033191,1273.677699 985.141362,1280.811532 995.477101,1294.680969 989.715225,1299.749236 979.486999,1290.905964 965.596482,1279.676704 956.339482,1293.708283 943.057459,1347.906694 938.285127,1347.156149 934.975127,1362.721815 940.081134,1363.477530 929.022428,1418.997039 931.206918,1432.385168 947.775413,1427.539809 962.274176,1424.037754 965.234612,1430.428033 949.404450,1439.677077"/>
    <poly id="174184473#1" type="sport.soccer" color="79,230,125" fill="1" layer="-2.00" shape="949.404450,1439.677077 959.506279,1453.077012 971.963308,1463.463279 984.831850,1469.430397 999.094366,1473.389382 1013.757765,1473.616737 1028.129614,1471.122151 1042.871266,1466.304085 1054.682521,1457.946737 1044.116400,1442.809204 1052.318717,1431.622983 1069.496015,1435.349989 1091.646060,1334.271988 1074.468585,1330.544949 1071.321712,1315.256280 1088.935048,1308.220130 1081.744060,1294.843029 1070.059208,1283.082154 1054.036301,1274.248747 1033.320710,1268.492613 1013.192167,1268.524348 995.033191,1273.677699 985.141362,1280.811532 995.477101,1294.680969 989.715225,1299.749236 979.486999,1290.905964 965.596482,1279.676704 956.339482,1293.708283 943.057459,1347.906694 938.285127,1347.156149 934.975127,1362.721815 940.081134,1363.477530 929.022428,1418.997039 931.206918,1432.385168 947.775413,1427.539809 962.274176,1424.037754 965.234612,1430.428033 949.404450,1439.677077"/>
    <poly id="243804621" type="amenity.school" color="237,199,199" fill="1" layer="-1.00" shape="1305.429492,2173.976613 1260.862274,2129.483325 1308.756062,2072.062985 1323.776155,2049.281279 1352.991985,1993.545185 1409.726161,2022.899437 1373.969539,2083.713475 1353.822158,2116.076213 1305.429492,2173.976613"/>
    <poly id="243804621#1" type="building.yes" color="255,230,230" fill="1" layer="-1.00" shape="1305.429492,2173.976613 1260.862274,2129.483325 1308.756062,2072.062985 1323.776155,2049.281279 1352.991985,1993.545185 1409.726161,2022.899437 1373.969539,2083.713475 1353.822158,2116.076213 1305.429492,2173.976613"/>
    <poly id="253266092" type="landuse.residential" color="235,235,227" fill="1" layer="-3.00" shape="1711.757082,-1200.216199 1753.513560,-1261.956416 1873.482726,-1212.150027 2037.339507,-1087.188492 2065.286465,-1124.386359 2141.891846,-1092.001242 2133.039057,-1035.195050 2381.835862,-911.474243 2718.395653,-747.861396 2649.451755,-655.749527 2673.735505,-627.739764 2629.629905,-565.452271 2676.638896,-527.181645 2504.896981,-351.029267 2441.287057,-259.930678 2540.927121,-183.702188 2644.010629,-277.054553 2728.608106,-247.511615 2892.943534,-258.798742 2895.566707,-362.730967 3008.047542,-493.166974 3021.205934,-507.324061 3081.176034,-461.316535 3123.627323,-503.729595 3233.265563,-431.296390 3194.278945,-314.958637 3289.395257,-268.008773 3365.522011,-237.107097 3429.914762,-52.325704 3478.381075,-98.080902 3503.405778,-143.817065 3528.740563,-122.720682 3573.274572,-90.152214 3621.718703,-134.442971 3678.753312,-91.949415 3647.904810,-28.592041 3639.569924,48.929683 3589.210269,97.726632 3748.079462,148.759239 3721.826178,236.468728 3786.852261,267.132316 3670.827421,473.315527 3739.171647,492.218526 3807.805508,398.234819 3915.592817,439.546221 4003.418110,358.755730 4064.229031,435.385447 4168.612384,355.424019 4251.322664,430.926469 4233.964414,500.041678 4326.978540,594.586285 4374.464322,642.368067 4438.817522,621.038478 4469.252555,687.439688 4454.336882,780.773429 4377.414720,801.337914 4382.615232,849.946924 4396.675068,926.326057 4364.878974,964.521191 4301.242445,963.013443 4388.548360,1040.642279 4396.278951,1108.014386 4451.466770,1140.578920 4362.625261,1263.997056 4425.123443,1305.584104 4375.811324,1404.794612 4325.991878,1472.319132 4397.646759,1523.390526 4356.256899,1602.506398 4295.734686,1593.128306 4271.130112,1639.268445 4227.333901,1609.369830 4180.034718,1675.947779 4206.610732,1693.194960 4159.628082,1740.988515 4095.911206,1805.798375 4077.034140,1797.679872 4053.210032,1785.811740 4001.593051,1826.578130 3929.920344,1861.093527 3856.203461,1809.116764 3839.424562,1797.282882 3830.103392,1820.406121 3860.946512,1851.584479 3835.650133,1878.903036 3907.629778,1949.841323 4022.392237,1925.912439 4149.117820,1869.009885 4202.989342,1944.045026 4206.243737,1967.433717 4214.024982,1978.948263 4133.134349,2030.630380 4153.390942,2061.076466 4176.974349,2057.068722 4194.654030,2061.730031 4200.079321,2062.780961 4151.385552,2122.726172 4135.271424,2115.804819 4078.676691,2171.842956 3967.133406,2275.505336 3900.732410,2260.601565 3788.123192,2211.304546 3785.381147,2164.232103 3827.699565,2129.750946 3859.488028,2132.726823 3870.729830,2081.926715 3859.863658,2045.617949 3813.687439,2009.738369 3766.219408,2055.030378 3749.485785,2043.873946 3715.035185,2084.413783 3694.090975,2088.042834 3646.522980,2171.445118 3620.663705,2139.358902 3667.684657,1996.052337 3666.286673,1927.216973 3618.991669,1930.430287 3616.132881,1954.143723 3495.292693,1953.235872 3500.369211,1883.515522 3481.080724,1876.778192 3393.616301,1935.794219 3287.599029,1783.631610 3256.003736,1737.092407 3222.495101,1717.265381 3205.736893,1707.595872 3143.717595,1761.568562 3027.935574,1597.376355 2990.994146,1542.834629 2872.190653,1665.229077 2805.530333,1603.289220 2814.232032,1587.586828 2783.369283,1557.398924 2798.671308,1532.882356 2760.565560,1489.226475 2727.530597,1534.250790 2620.802791,1457.819347 2609.446572,1484.372339 2682.423743,1546.831247 2654.005627,1592.493863 2615.988979,1575.071827 2589.562713,1610.794403 2568.749909,1606.009408 2530.507767,1666.303653 2402.037149,1581.126572 2325.010816,1513.093972 1968.474266,1222.867202 1904.307090,1095.632136 1789.449240,933.933311 1719.823374,837.804353 1693.295804,752.728811 1613.706805,686.559369 1561.052147,722.275775 1547.882332,700.464408 1514.959205,578.166353 1416.357984,224.552521 1567.205401,87.764916 1517.443155,35.082232 1392.810561,84.632113 1275.900976,-296.904168 1280.394119,-428.047837 1238.686307,-431.168618 1184.852230,-616.190602 1274.208601,-668.775659 1283.632334,-762.708136 1223.816076,-723.041263 1135.348363,-728.373210 1065.624262,-883.438308 1283.245069,-973.753524 1301.378473,-1042.694565 1253.115117,-1264.786923 1136.721289,-1297.781667 1108.128715,-1346.750477 1164.460519,-1418.671030 1167.812812,-1474.575954 1229.064827,-1510.272488 1255.612282,-1501.042845 1417.497110,-1257.875940 1463.301576,-1207.817900 1608.204120,-1044.459921 1640.847550,-1064.748850 1651.805152,-1087.748704 1681.732438,-1070.545811 1696.344337,-1104.890910 1744.322980,-1086.807917 1783.355942,-1165.427447 1711.757082,-1200.216199"/>
    <poly id="253267302" type="landuse.residential" color="235,235,227" fill="1" layer="-3.00" shape="1575.211250,1055.876939 1518.121538,1110.413503 1472.923203,1138.415595 1398.887737,1229.846210 1342.913544,1215.111760 1207.350572,1362.998043 1241.580884,1401.152281 1176.615958,1452.618049 1205.091910,1476.829430 1109.747698,1563.461329 1075.181368,1547.574276 1032.780501,1620.187745 1008.691118,1665.844331 1028.290116,1684.959614 975.398514,1760.372070 950.864380,1803.060427 918.786439,1851.577020 904.982968,1939.474771 1005.523897,2083.516143 933.117904,2139.337840 941.951596,2153.161814 1036.479963,2288.991430 1009.832656,2308.398816 927.345961,2195.327528 840.525108,2280.518832 803.329399,2530.901261 748.507557,2634.978822 750.525430,2782.439668 757.077016,2905.291935 1127.574840,2870.940552 1152.912989,2915.467558 1193.797987,2897.213449 1213.121395,2880.765232 1131.727149,2967.102899 1216.152510,2973.860043 1248.002298,2938.717444 1222.758077,2836.858961 1226.626214,2716.153353 1572.185868,2493.838289 1675.079554,2551.298411 1699.588895,2615.601531 1731.794799,2645.230161 2079.701573,2571.542323 2472.224712,2583.550227 2652.216620,2626.534401 2688.572139,2400.900212 2353.116855,2387.225690 2333.217253,2260.202805 2168.829438,2246.240773 2118.104363,2087.047844 2223.397074,2096.124974 2228.637032,1983.337978 2355.533391,2000.596133 2346.461612,2112.890601 2428.311230,2117.066690 2468.333139,2006.321697 2690.600213,2040.495836 2670.966426,2191.733907 2883.202055,2253.396034 2930.762556,2084.439740 3046.195667,2112.485736 3076.405674,2110.908757 3084.730814,2096.753521 3111.005097,2068.971547 3053.799904,2039.810275 3091.918557,1956.256696 2628.494287,1760.876283 2507.701970,1715.370993 2233.954038,1547.784497 1897.488994,1309.860753 1770.050228,1125.693769 1675.926548,1007.765403 1575.211250,1055.876939"/>
    <poly id="409547710" type="waterway.stream" color="181,209,209" fill="0" layer="-4.00" shape="938.985918,-2002.318674 913.749733,-1935.782971 912.777469,-1872.964476 906.970050,-1799.750400 861.378310,-1723.669236 874.999840,-1622.237101 917.397545,-1566.888525 941.183857,-1517.662049 936.751366,-1458.390918 908.747437,-1385.520433 837.959970,-1343.569669 761.619795,-1320.315882 707.988902,-1329.286297 634.660047,-1349.042280 511.825334,-1267.165175 437.447651,-1143.821981 384.727831,-1059.707642 291.796846,-945.966523 182.262823,-816.186977 83.827415,-723.469611 25.191237,-634.786174 5.673184,-505.959265 9.824695,-459.987627 -11.731469,-423.451200 -66.521300,-392.949594 -98.741424,-345.518802 -150.887198,-286.104904 -193.789642,-226.548678 -242.752647,-173.840130 -269.522249,-118.949229 -277.233038,-58.851953 -265.048882,32.274434 -230.750246,170.447025 -154.413800,505.253184 -110.296104,686.568214 -107.675138,757.272612 -68.977150,889.968104 -37.223078,992.443437 33.764042,1313.017029 110.793843,1624.944532 179.627990,1724.310097 185.702300,1770.478082 193.758721,1848.620329 162.236857,1931.686942 143.250667,2002.036331 161.965256,2109.225325 185.201671,2163.022802 229.761857,2195.043816 274.221893,2193.888629 341.135041,2177.108416 386.970184,2166.757880 462.062018,2140.266578 481.884631,2095.119600 466.913665,2025.466083 444.152941,1940.951561 435.538886,1899.047629 448.729041,1844.569942 491.342561,1802.836360 528.883122,1770.241640 580.395936,1751.383714 633.065547,1738.067555 686.128292,1739.498476 727.783093,1759.808468 793.858552,1814.747589 812.501824,1869.240903 796.261324,1921.208624 779.640320,1998.359484 761.939317,2065.045366 723.153384,2178.710528 690.835845,2272.810530 713.550129,2397.254857 718.932604,2466.949041 693.485088,2540.081343 638.462245,2586.535520 587.359376,2619.319227 530.237831,2664.277432 422.485678,2686.370211 348.813905,2659.000659 274.555030,2605.379968 138.919692,2500.579581 58.254021,2442.669304 23.740380,2407.232349 -7.144077,2362.456889 -25.666441,2338.413488 -55.657822,2315.679785 -89.269633,2302.296081 -139.685757,2282.708808 -169.625251,2272.842475 -181.031530,2270.681596 -208.640362,2273.218315"/>
    <poly id="504405670" type="amenity.hospital" color="237,199,199" fill="1" layer="-1.00" shape="1030.755608,2016.747777 1104.190240,1963.438328 1144.155487,2016.033887 1111.521733,2035.825049 1045.946332,2031.335945 1030.755608,2016.747777"/>
    <poly id="515366119" type="building.yes" color="255,230,230" fill="1" layer="-1.00" shape="2042.051391,1397.522357 2066.120654,1416.454518 2069.378736,1415.019112 2114.826370,1450.634374 2130.041724,1431.561473 2110.593888,1418.890475 2115.437126,1411.534714 2038.104630,1347.459551 2032.007946,1355.527830 2025.366570,1350.976397 2012.654803,1368.846272 2043.838886,1394.078576 2042.051391,1397.522357"/>
    <poly id="590803868" type="amenity.fuel" color="237,199,199" fill="1" layer="-1.00" shape="2079.664801,1477.082297 2093.408247,1485.759876 2095.831748,1481.960013 2082.088298,1473.282430 2079.664801,1477.082297"/>
    <poly id="590803868#1" type="building.roof" color="255,230,230" fill="1" layer="-1.00" shape="2079.664801,1477.082297 2093.408247,1485.759876 2095.831748,1481.960013 2082.088298,1473.282430 2079.664801,1477.082297"/>
    <poly id="590843154" type="building.residential" color="255,230,230" fill="1" layer="-1.00" shape="1934.531241,1742.247721 1939.582424,1738.777207 1935.937566,1733.518347 1930.876940,1736.999807 1934.531241,1742.247721"/>
    <poly id="590843155" type="amenity.fuel" color="237,199,199" fill="1" layer="-1.00" shape="1957.133546,1728.003796 1963.302469,1725.981561 1961.159818,1719.514961 1954.990891,1721.537198 1957.133546,1728.003796"/>
    <poly id="590843155#1" type="building.roof" color="255,230,230" fill="1" layer="-1.00" shape="1957.133546,1728.003796 1963.302469,1725.981561 1961.159818,1719.514961 1954.990891,1721.537198 1957.133546,1728.003796"/>
    <poly id="617596931" type="leisure.pitch" color="207,245,201" fill="1" layer="-2.00" shape="969.718314,1417.498184 992.249356,1311.512336 1063.229993,1326.477480 1040.698353,1432.452100 969.718314,1417.498184"/>
    <poly id="617596931#1" type="sport.soccer" color="79,230,125" fill="1" layer="-2.00" shape="969.718314,1417.498184 992.249356,1311.512336 1063.229993,1326.477480 1040.698353,1432.452100 969.718314,1417.498184"/>
    <poly id="648181441" type="building.yes" color="255,230,230" fill="1" layer="-1.00" shape="1182.107265,1607.120671 1170.598448,1597.192490 1191.818065,1572.820883 1203.317623,1582.748944 1182.107265,1607.120671"/>
    <poly id="648181443" type="building.yes" color="255,230,230" fill="1" layer="-1.00" shape="1206.829633,1572.111159 1196.145493,1563.404739 1209.147833,1547.601417 1216.728245,1553.786229 1211.682272,1559.919182 1214.511214,1562.225796 1222.269341,1552.785291 1261.206388,1584.513049 1245.822634,1603.218596 1239.935824,1598.424328 1247.778920,1588.885338 1242.935830,1584.939150 1238.655092,1590.152278 1210.722763,1567.380030 1206.829633,1572.111159"/>
    <poly id="648181451" type="building.yes" color="255,230,230" fill="1" layer="-1.00" shape="2112.677199,1321.127843 2099.635709,1310.231789 2107.579969,1300.817041 2120.621637,1311.702017 2112.677199,1321.127843"/>
    <poly id="648181453" type="building.yes" color="255,230,230" fill="1" layer="-1.00" shape="2091.416068,1305.223087 2078.374532,1294.327063 2086.318783,1284.912298 2099.360497,1295.797243 2091.416068,1305.223087"/>
    <poly id="653411812" type="building.roof" color="255,230,230" fill="1" layer="-1.00" shape="931.206918,1432.385168 947.775413,1427.539809 945.943795,1417.107507 971.594995,1302.407621 979.486999,1290.905964 965.596482,1279.676704 956.339482,1293.708283 943.057459,1347.906694 938.285127,1347.156149 934.975127,1362.721815 940.081134,1363.477530 929.022428,1418.997039 931.206918,1432.385168"/>
    <poly id="657551988" type="building.stadium" color="255,230,230" fill="1" layer="-1.00" shape="962.274176,1424.037754 959.162929,1414.217835 981.794245,1309.531240 989.715225,1299.749236 979.486999,1290.905964 965.596482,1279.676704 956.339482,1293.708283 943.057459,1347.906694 938.285127,1347.156149 934.975127,1362.721815 940.081134,1363.477530 929.022428,1418.997039 931.206918,1432.385168 947.775413,1427.539809 962.274176,1424.037754"/>
    <poly id="657551989" type="building.stadium" color="255,230,230" fill="1" layer="-1.00" shape="965.234612,1430.428033 973.967274,1440.645657 986.613136,1450.214092 1003.211605,1454.797150 1021.306407,1455.554656 1035.386203,1450.970331 1044.116400,1442.809204 1054.682521,1457.946737 1042.871266,1466.304085 1028.129614,1471.122151 1013.757765,1473.616737 999.094366,1473.389382 984.831850,1469.430397 971.963308,1463.463279 959.506279,1453.077012 949.404450,1439.677077 965.234612,1430.428033"/>
    <poly id="657551990" type="building.stadium" color="255,230,230" fill="1" layer="-1.00" shape="1052.318717,1431.622983 1074.468585,1330.544949 1091.646060,1334.271988 1069.496015,1435.349989 1052.318717,1431.622983"/>
    <poly id="657551991" type="building.stadium" color="255,230,230" fill="1" layer="-1.00" shape="1071.321712,1315.256280 1066.628980,1304.591017 1057.366203,1295.074953 1044.165648,1289.579539 1025.382979,1285.927524 1008.933910,1287.835342 995.477101,1294.680969 985.141362,1280.811532 995.033191,1273.677699 1013.192167,1268.524348 1033.320710,1268.492613 1054.036301,1274.248747 1070.059208,1283.082154 1081.744060,1294.843029 1088.935048,1308.220130 1071.321712,1315.256280"/>
    <poly id="696660607" type="leisure.park" color="207,245,201" fill="1" layer="-2.00" shape="1918.412645,1569.687382 1980.058753,1483.979105 1986.840161,1474.801227 1993.960705,1464.685856 1984.763906,1448.037934 1985.074038,1428.166529 1990.335391,1414.805559 1989.300530,1408.045682 1959.700471,1385.866297 1923.887703,1357.201301 1910.728679,1346.104028 1842.537941,1410.936048 1877.801421,1479.577567 1918.412645,1569.687382"/>
    <poly id="696686162" type="leisure.park" color="207,245,201" fill="1" layer="-2.00" shape="1191.155161,1891.394993 1215.488683,1855.713990 1255.868555,1854.156076 1291.245690,1878.630280 1245.774248,1934.036409 1191.155161,1891.394993"/>
    <poly id="696686163" type="leisure.park" color="207,245,201" fill="1" layer="-2.00" shape="1038.669715,1761.719207 1086.537401,1798.620386 1109.722750,1772.992494 1104.165837,1733.198309 1078.386002,1711.524631 1038.669715,1761.719207"/>
    <poly id="696686164" type="leisure.park" color="207,245,201" fill="1" layer="-2.00" shape="1188.201772,1627.202366 1228.151186,1623.574565 1241.692128,1607.713101 1207.699154,1579.999704 1175.320057,1616.132612 1188.201772,1627.202366"/>
    <poly id="696686165" type="leisure.park" color="207,245,201" fill="1" layer="-2.00" shape="1338.653053,1757.747309 1370.591814,1777.986817 1385.879779,1741.588837 1370.324044,1733.782533 1389.683918,1679.967454 1369.016315,1665.227068 1335.678282,1708.753752 1338.653053,1757.747309"/>
    <poly id="696686166" type="leisure.park" color="207,245,201" fill="1" layer="-2.00" shape="1662.218641,2095.663770 1712.796119,2016.114920 1659.255499,1994.262156 1657.514163,2081.060434 1662.218641,2095.663770"/>
    <poly id="696686168" type="natural.water" color="181,209,209" fill="1" layer="-4.00" shape="1921.834901,1507.804985 1911.296469,1502.272224 1906.333178,1494.752302 1904.502773,1487.281252 1904.595660,1481.326485 1905.142796,1474.779854 1908.189937,1471.411158 1912.678522,1471.325894 1917.016383,1471.393564 1919.968384,1474.123795 1926.505283,1476.455197 1930.567469,1475.176482 1932.986707,1473.428470 1940.072865,1470.266992 1942.012321,1470.153060 1944.072323,1472.414624 1941.949689,1474.167261 1941.126857,1479.367500 1941.084987,1482.051026 1941.031698,1485.466424 1941.073076,1492.321711 1939.066222,1496.161386 1935.882366,1498.784799 1931.173520,1503.480742 1924.838170,1506.653940 1921.834901,1507.804985"/>
    <poly id="696686169" type="natural.water" color="181,209,209" fill="1" layer="-4.00" shape="1965.231769,1779.384732 1963.325043,1775.029227 1964.025533,1768.163331 1966.425727,1765.849358 1968.415352,1764.893252 1973.750884,1764.588317 1978.057978,1766.618765 1979.934064,1772.937018 1977.080106,1778.782145 1971.899244,1781.651665 1965.231769,1779.384732"/>
    <poly id="697082691" type="leisure.park" color="207,245,201" fill="1" layer="-2.00" shape="892.080723,1952.473840 997.592131,2088.650562 933.117904,2139.337840 941.951596,2153.161814 1036.479963,2288.991430 1009.832656,2308.398816 927.345961,2195.327528 925.530307,2192.848140 838.933056,2267.794285 892.080723,1952.473840"/>