<?xml version="1.0" encoding="UTF-8"?>

<!-- generated on 02/12/23 12:30:35 by Eclipse SUMO netconvert Version 1.0.1
<configuration xmlns:xsi="http://www.w3.org/2001/XMLSchema-instance" xsi:noNamespaceSchemaLocation="http://sumo.dlr.de/xsd/netconvertConfiguration.xsd">

    <input>
        <type-files value="E:\Taxk\Morroco_Maroua_unity\sumo-1.0.1\data\typemap\osmNetconvert.typ.xml,E:\Taxk\Morroco_Maroua_unity\sumo-1.0.1\data\typemap\osmNetconvertUrbanDe.typ.xml,E:\Taxk\Morroco_Maroua_unity\sumo-1.0.1\data\typemap\osmNetconvertPedestrians.typ.xml"/>
        <osm-files value="E:\Taxk\Morroco_Maroua_unity\sumo-1.0.1\tools\2023-02-12-12-30-32\osm_bbox.osm.xml"/>
    </input>

    <output>
        <output-file value="E:\Taxk\Morroco_Maroua_unity\sumo-1.0.1\tools\2023-02-12-12-30-32\osm.net.xml"/>
        <output.street-names value="true"/>
        <output.original-names value="true"/>
    </output>

    <projection>
        <proj.utm value="true"/>
    </projection>

    <processing>
        <geometry.remove value="true"/>
        <roundabouts.guess value="true"/>
    </processing>

    <tls_building>
        <tls.discard-simple value="true"/>
        <tls.join value="true"/>
        <tls.guess-signals value="true"/>
        <tls.default-type value="actuated"/>
    </tls_building>

    <ramp_guessing>
        <ramps.guess value="true"/>
    </ramp_guessing>

    <junctions>
        <junctions.join value="true"/>
        <junctions.corner-detail value="5"/>
    </junctions>

    <pedestrian>
        <crossings.guess value="true"/>
    </pedestrian>

    <report>
        <verbose value="true"/>
    </report>

</configuration>
-->

<net version="1.0" junctionCornerDetail="5" walkingareas="true" limitTurnSpeed="5.50" xmlns:xsi="http://www.w3.org/2001/XMLSchema-instance" xsi:noNamespaceSchemaLocation="http://sumo.dlr.de/xsd/net_file.xsd">

    <location netOffset="-647358.29,-3728180.52" convBoundary="0.00,0.00,3548.57,2636.60" origBoundary="-7.413266,33.665160,-7.371630,33.707504" projParameter="+proj=utm +zone=29 +ellps=WGS84 +datum=WGS84 +units=m +no_defs"/>

    <type id="highway.bridleway" priority="1" numLanes="1" speed="2.78" allow="pedestrian" oneway="1" width="2.00"/>
    <type id="highway.bus_guideway" priority="1" numLanes="1" speed="13.89" allow="bus" oneway="1"/>
    <type id="highway.cycleway" priority="1" numLanes="1" speed="8.33" allow="bicycle" oneway="0" width="1.00"/>
    <type id="highway.footway" priority="1" numLanes="1" speed="2.78" allow="pedestrian" oneway="1" width="2.00"/>
    <type id="highway.ford" priority="1" numLanes="1" speed="2.78" allow="army" oneway="0"/>
    <type id="highway.living_street" priority="3" numLanes="1" speed="2.78" disallow="tram rail_urban rail rail_electric ship" oneway="0"/>
    <type id="highway.motorway" priority="13" numLanes="2" speed="27.78" allow="private emergency authority army vip passenger hov taxi bus coach delivery truck trailer motorcycle evehicle custom1 custom2" oneway="1"/>
    <type id="highway.motorway_link" priority="12" numLanes="1" speed="16.67" allow="private emergency authority army vip passenger hov taxi bus coach delivery truck trailer motorcycle evehicle custom1 custom2" oneway="1"/>
    <type id="highway.path" priority="1" numLanes="1" speed="2.78" allow="bicycle pedestrian" oneway="1" width="2.00"/>
    <type id="highway.pedestrian" priority="1" numLanes="1" speed="2.78" allow="pedestrian" oneway="1" width="2.00"/>
    <type id="highway.primary" priority="9" numLanes="2" speed="13.89" disallow="tram rail_urban rail rail_electric pedestrian ship" oneway="0" sidewalkWidth="3.00"/>
    <type id="highway.primary_link" priority="8" numLanes="1" speed="13.89" disallow="tram rail_urban rail rail_electric pedestrian ship" oneway="0" sidewalkWidth="3.00"/>
    <type id="highway.raceway" priority="14" numLanes="2" speed="83.33" allow="vip" oneway="0"/>
    <type id="highway.residential" priority="4" numLanes="1" speed="13.89" disallow="tram rail_urban rail rail_electric pedestrian ship" oneway="0" sidewalkWidth="2.00"/>
    <type id="highway.secondary" priority="7" numLanes="2" speed="13.89" disallow="tram rail_urban rail rail_electric pedestrian ship" oneway="0" sidewalkWidth="3.00"/>
    <type id="highway.secondary_link" priority="6" numLanes="1" speed="13.89" disallow="tram rail_urban rail rail_electric pedestrian ship" oneway="0" sidewalkWidth="3.00"/>
    <type id="highway.service" priority="2" numLanes="1" speed="5.56" allow="delivery bicycle pedestrian" oneway="0"/>
    <type id="highway.stairs" priority="1" numLanes="1" speed="1.39" allow="pedestrian" oneway="1" width="2.00"/>
    <type id="highway.step" priority="1" numLanes="1" speed="1.39" allow="pedestrian" oneway="1" width="2.00"/>
    <type id="highway.steps" priority="1" numLanes="1" speed="1.39" allow="pedestrian" oneway="1" width="2.00"/>
    <type id="highway.tertiary" priority="6" numLanes="1" speed="13.89" disallow="tram rail_urban rail rail_electric pedestrian ship" oneway="0" sidewalkWidth="3.00"/>
    <type id="highway.tertiary_link" priority="5" numLanes="1" speed="13.89" disallow="tram rail_urban rail rail_electric pedestrian ship" oneway="0" sidewalkWidth="2.00"/>
    <type id="highway.track" priority="1" numLanes="1" speed="5.56" disallow="tram rail_urban rail rail_electric ship" oneway="0"/>
    <type id="highway.trunk" priority="11" numLanes="2" speed="13.89" disallow="tram rail_urban rail rail_electric bicycle pedestrian ship" oneway="0"/>
    <type id="highway.trunk_link" priority="10" numLanes="1" speed="13.89" disallow="tram rail_urban rail rail_electric bicycle pedestrian ship" oneway="0"/>
    <type id="highway.unclassified" priority="5" numLanes="1" speed="13.89" disallow="tram rail_urban rail rail_electric pedestrian ship" oneway="0" sidewalkWidth="2.00"/>
    <type id="highway.unsurfaced" priority="1" numLanes="1" speed="8.33" disallow="tram rail_urban rail rail_electric ship" oneway="0"/>
    <type id="railway.light_rail" priority="15" numLanes="1" speed="27.78" allow="rail_urban" oneway="1"/>
    <type id="railway.preserved" priority="15" numLanes="1" speed="27.78" allow="rail" oneway="1"/>
    <type id="railway.rail" priority="15" numLanes="1" speed="83.33" allow="rail rail_electric" oneway="1"/>
    <type id="railway.subway" priority="15" numLanes="1" speed="27.78" allow="rail_urban" oneway="1"/>
    <type id="railway.tram" priority="15" numLanes="1" speed="13.89" allow="tram" oneway="1"/>

    <edge id=":10143415969_0" function="internal">
        <lane id=":10143415969_0_0" index="0" disallow="tram rail_urban rail rail_electric pedestrian ship" speed="3.65" length="4.67" shape="1724.12,1930.44 1722.84,1931.10 1721.94,1931.05 1721.44,1930.31 1721.33,1928.87"/>
    </edge>
    <edge id=":10143415969_w0" function="walkingarea">
        <lane id=":10143415969_w0_0" index="0" allow="pedestrian" speed="1.00" length="8.40" width="2.00" shape="1719.94,1928.09 1718.20,1927.11 1727.26,1932.21 1725.52,1931.23"/>
    </edge>
    <edge id=":1848485268_0" function="internal">
        <lane id=":1848485268_0_0" index="0" disallow="tram rail_urban rail rail_electric pedestrian ship" speed="3.65" length="4.67" shape="1767.33,1277.28 1768.51,1276.46 1769.40,1276.38 1770.00,1277.04 1770.31,1278.45"/>
    </edge>
    <edge id=":1848485268_w0" function="walkingarea">
        <lane id=":1848485268_w0_0" index="0" allow="pedestrian" speed="1.00" length="9.40" width="3.00" shape="1771.80,1279.03 1774.59,1280.13 1763.05,1275.60 1765.84,1276.70"/>
    </edge>
    <edge id=":1848485270_0" function="internal">
        <lane id=":1848485270_0_0" index="0" disallow="tram rail_urban rail rail_electric pedestrian ship" speed="16.67" length="11.20" shape="2002.75,1412.70 1993.57,1406.18"/>
        <lane id=":1848485270_0_1" index="1" disallow="tram rail_urban rail rail_electric pedestrian ship" speed="16.67" length="11.20" shape="2004.55,1410.05 1995.46,1403.60"/>
    </edge>
    <edge id=":1848485270_2" function="internal">
        <lane id=":1848485270_2_0" index="0" disallow="tram rail_urban rail rail_electric pedestrian ship" speed="3.65" length="2.34" shape="2004.55,1410.05 2004.01,1408.72 2004.13,1407.83"/>
    </edge>
    <edge id=":1848485270_8" function="internal">
        <lane id=":1848485270_8_0" index="0" speed="3.65" length="2.34" shape="2004.13,1407.83 2004.91,1407.39 2006.36,1407.41"/>
    </edge>
    <edge id=":1848485270_3" function="internal">
        <lane id=":1848485270_3_0" index="0" disallow="tram rail_urban rail rail_electric pedestrian ship" speed="16.67" length="10.99" shape="1999.25,1398.43 2008.16,1404.77"/>
        <lane id=":1848485270_3_1" index="1" disallow="tram rail_urban rail rail_electric pedestrian ship" speed="16.67" length="10.99" shape="1997.36,1401.02 2006.36,1407.41"/>
    </edge>
    <edge id=":1848485270_5" function="internal">
        <lane id=":1848485270_5_0" index="0" disallow="tram rail_urban rail rail_electric pedestrian ship" speed="3.65" length="2.34" shape="1997.36,1401.02 1997.85,1402.37 1997.70,1403.25"/>
    </edge>
    <edge id=":1848485270_9" function="internal">
        <lane id=":1848485270_9_0" index="0" speed="3.65" length="2.34" shape="1997.70,1403.25 1996.91,1403.66 1995.46,1403.60"/>
    </edge>
    <edge id=":1848485270_6" function="internal">
        <lane id=":1848485270_6_0" index="0" disallow="tram rail_urban rail rail_electric pedestrian ship" speed="6.64" length="9.10" shape="1994.08,1414.26 1995.34,1411.80 1995.67,1409.64 1995.08,1407.76 1993.57,1406.18"/>
    </edge>
    <edge id=":1848485270_7" function="internal">
        <lane id=":1848485270_7_0" index="0" disallow="tram rail_urban rail rail_electric pedestrian ship" speed="7.80" length="13.60" shape="1996.75,1416.02 1999.94,1411.56 2002.60,1408.64 2004.74,1407.26 2006.36,1407.41"/>
    </edge>
    <edge id=":1848485270_c0" function="crossing" crossingEdges="174124148#2">
        <lane id=":1848485270_c0_0" index="0" allow="pedestrian" speed="1.00" length="6.40" width="4.00" shape="1999.19,1415.23 1993.85,1411.71"/>
    </edge>
    <edge id=":1848485270_w0" function="walkingarea">
        <lane id=":1848485270_w0_0" index="0" allow="pedestrian" speed="1.00" length="1.81" width="4.00" shape="1998.09,1416.90 2000.15,1416.49 2001.85,1414.02 2001.39,1413.86 2000.86,1413.95 2000.27,1414.30 1999.61,1414.91 1998.88,1415.78"/>
    </edge>
    <edge id=":1848485270_w1" function="walkingarea">
        <lane id=":1848485270_w1_0" index="0" allow="pedestrian" speed="1.00" length="10.83" width="3.00" shape="2009.06,1403.45 2010.76,1400.97 2001.96,1394.72 2000.19,1397.14"/>
    </edge>
    <edge id=":1848485270_w2" function="walkingarea">
        <lane id=":1848485270_w2_0" index="0" allow="pedestrian" speed="1.00" length="3.36" width="4.00" shape="1992.63,1407.47 1990.86,1409.89 1991.08,1412.27 1992.75,1413.38 1993.46,1412.12 1993.88,1410.98 1994.01,1409.94 1993.85,1409.01 1993.38,1408.18"/>
    </edge>
    <edge id=":1848485275_0" function="internal">
        <lane id=":1848485275_0_0" index="0" disallow="tram rail_urban rail rail_electric pedestrian ship" speed="6.64" length="5.01" shape="2056.81,1450.01 2054.80,1449.11 2052.83,1449.18 2052.09,1449.58"/>
    </edge>
    <edge id=":1848485275_1" function="internal">
        <lane id=":1848485275_1_0" index="0" disallow="tram rail_urban rail rail_electric pedestrian ship" speed="16.67" length="11.38" shape="2056.81,1450.01 2047.43,1443.55"/>
        <lane id=":1848485275_1_1" index="1" disallow="tram rail_urban rail rail_electric pedestrian ship" speed="16.67" length="11.38" shape="2058.62,1447.37 2049.25,1440.92"/>
    </edge>
    <edge id=":1848485275_3" function="internal">
        <lane id=":1848485275_3_0" index="0" disallow="tram rail_urban rail rail_electric pedestrian ship" speed="3.65" length="2.34" shape="2058.62,1447.37 2058.09,1446.04 2058.21,1445.15"/>
    </edge>
    <edge id=":1848485275_8" function="internal">
        <lane id=":1848485275_8_0" index="0" speed="6.64" length="4.14" shape="2052.09,1449.58 2050.89,1450.23 2049.00,1452.26"/>
    </edge>
    <edge id=":1848485275_9" function="internal">
        <lane id=":1848485275_9_0" index="0" speed="3.65" length="2.34" shape="2058.21,1445.15 2058.99,1444.72 2060.43,1444.74"/>
    </edge>
    <edge id=":1848485275_4" function="internal">
        <lane id=":1848485275_4_0" index="0" disallow="tram rail_urban rail rail_electric pedestrian ship" speed="16.67" length="11.36" shape="2052.90,1435.66 2062.25,1442.10"/>
        <lane id=":1848485275_4_1" index="1" disallow="tram rail_urban rail rail_electric pedestrian ship" speed="16.67" length="11.36" shape="2051.08,1438.29 2060.43,1444.74"/>
    </edge>
    <edge id=":1848485275_6" function="internal">
        <lane id=":1848485275_6_0" index="0" disallow="tram rail_urban rail rail_electric pedestrian ship" speed="7.77" length="2.58" shape="2051.08,1438.29 2051.86,1439.79 2051.69,1440.65"/>
    </edge>
    <edge id=":1848485275_7" function="internal">
        <lane id=":1848485275_7_0" index="0" disallow="tram rail_urban rail rail_electric pedestrian ship" speed="3.65" length="2.34" shape="2051.08,1438.29 2051.61,1439.63 2051.48,1440.51"/>
    </edge>
    <edge id=":1848485275_10" function="internal">
        <lane id=":1848485275_10_0" index="0" speed="7.77" length="11.13" shape="2051.69,1440.65 2051.35,1442.30 2049.54,1445.82 2046.43,1450.34"/>
    </edge>
    <edge id=":1848485275_11" function="internal">
        <lane id=":1848485275_11_0" index="0" speed="3.65" length="2.34" shape="2051.48,1440.51 2050.70,1440.94 2049.25,1440.92"/>
    </edge>
    <edge id=":1848485275_c0" function="crossing" crossingEdges="174124148#0">
        <lane id=":1848485275_c0_0" index="0" allow="pedestrian" speed="1.00" length="6.40" width="4.00" shape="2051.48,1451.61 2046.35,1447.78"/>
    </edge>
    <edge id=":1848485275_w0" function="walkingarea">
        <lane id=":1848485275_w0_0" index="0" allow="pedestrian" speed="1.00" length="3.37" width="4.00" shape="2050.28,1453.22 2051.88,1454.41 2054.21,1453.80 2055.91,1451.33 2054.97,1450.85 2054.04,1450.69 2053.10,1450.84 2052.17,1451.32 2051.22,1452.11"/>
    </edge>
    <edge id=":1848485275_w1" function="walkingarea">
        <lane id=":1848485275_w1_0" index="0" allow="pedestrian" speed="1.00" length="11.34" width="3.00" shape="2063.15,1440.78 2064.85,1438.31 2055.51,1431.87 2053.81,1434.34"/>
    </edge>
    <edge id=":1848485275_w2" function="walkingarea">
        <lane id=":1848485275_w2_0" index="0" allow="pedestrian" speed="1.00" length="1.82" width="4.00" shape="2046.52,1444.86 2044.82,1447.33 2045.15,1449.39 2045.94,1448.26 2046.50,1447.28 2046.84,1446.45 2046.96,1445.77 2046.85,1445.24"/>
    </edge>
    <edge id=":1848485299_0" function="internal">
        <lane id=":1848485299_0_0" index="0" disallow="tram rail_urban rail rail_electric pedestrian ship" speed="6.48" length="9.12" shape="1458.41,1469.67 1456.32,1468.29 1454.30,1467.94 1452.35,1468.59 1450.49,1470.27"/>
    </edge>
    <edge id=":1848485299_1" function="internal">
        <lane id=":1848485299_1_0" index="0" disallow="tram rail_urban rail rail_electric pedestrian ship" speed="8.10" length="14.22" shape="1458.41,1469.67 1455.84,1466.68 1454.78,1463.61 1455.25,1460.44 1457.23,1457.17"/>
    </edge>
    <edge id=":1848485299_2" function="internal">
        <lane id=":1848485299_2_0" index="0" disallow="tram rail_urban rail rail_electric pedestrian ship" speed="3.65" length="4.67" shape="1458.41,1469.67 1458.04,1468.27 1458.27,1467.41 1459.10,1467.07 1460.53,1467.27"/>
    </edge>
    <edge id=":1848485299_3" function="internal">
        <lane id=":1848485299_3_0" index="0" disallow="tram rail_urban rail rail_electric pedestrian ship" speed="6.62" length="4.93" shape="1459.69,1459.21 1458.43,1461.30 1458.15,1463.34 1458.29,1463.75"/>
    </edge>
    <edge id=":1848485299_4" function="internal">
        <lane id=":1848485299_4_0" index="0" disallow="tram rail_urban rail rail_electric pedestrian ship" speed="13.89" length="14.39" shape="1459.69,1459.21 1450.49,1470.27"/>
    </edge>
    <edge id=":1848485299_5" function="internal">
        <lane id=":1848485299_5_0" index="0" disallow="tram rail_urban rail rail_electric pedestrian ship" speed="3.65" length="2.34" shape="1459.69,1459.21 1458.31,1459.63 1457.44,1459.43"/>
    </edge>
    <edge id=":1848485299_9" function="internal">
        <lane id=":1848485299_9_0" index="0" speed="6.62" length="4.24" shape="1458.29,1463.75 1458.85,1465.33 1460.53,1467.27"/>
    </edge>
    <edge id=":1848485299_10" function="internal">
        <lane id=":1848485299_10_0" index="0" speed="3.65" length="2.34" shape="1457.44,1459.43 1457.08,1458.61 1457.23,1457.17"/>
    </edge>
    <edge id=":1848485299_6" function="internal">
        <lane id=":1848485299_6_0" index="0" disallow="tram rail_urban rail rail_electric pedestrian ship" speed="13.89" length="14.37" shape="1448.03,1468.22 1457.23,1457.17"/>
    </edge>
    <edge id=":1848485299_7" function="internal">
        <lane id=":1848485299_7_0" index="0" disallow="tram rail_urban rail rail_electric pedestrian ship" speed="7.98" length="5.92" shape="1448.03,1468.22 1450.97,1465.58 1452.84,1464.94"/>
    </edge>
    <edge id=":1848485299_8" function="internal">
        <lane id=":1848485299_8_0" index="0" disallow="tram rail_urban rail rail_electric pedestrian ship" speed="3.65" length="2.34" shape="1448.03,1468.22 1449.42,1467.81 1450.29,1468.02"/>
    </edge>
    <edge id=":1848485299_11" function="internal">
        <lane id=":1848485299_11_0" index="0" speed="7.98" length="8.45" shape="1452.84,1464.94 1454.04,1464.54 1457.22,1465.10 1460.53,1467.27"/>
    </edge>
    <edge id=":1848485299_12" function="internal">
        <lane id=":1848485299_12_0" index="0" speed="3.65" length="2.34" shape="1450.29,1468.02 1450.64,1468.84 1450.49,1470.27"/>
    </edge>
    <edge id=":1848485299_c0" function="crossing" crossingEdges="-576073344 243803403#15">
        <lane id=":1848485299_c0_0" index="0" allow="pedestrian" speed="1.00" length="6.40" width="4.00" shape="1460.09,1464.75 1455.85,1469.55"/>
    </edge>
    <edge id=":1848485299_c1" function="crossing" crossingEdges="174124168#9 -174124168#9">
        <lane id=":1848485299_c1_0" index="0" allow="pedestrian" speed="1.00" length="6.40" width="4.00" shape="1454.72,1457.69 1459.65,1461.78"/>
    </edge>
    <edge id=":1848485299_c2" function="crossing" crossingEdges="-174124168#8 174124168#8">
        <lane id=":1848485299_c2_0" index="0" allow="pedestrian" speed="1.00" length="6.40" width="4.00" shape="1453.00,1469.76 1448.09,1465.66"/>
    </edge>
    <edge id=":1848485299_w0" function="walkingarea">
        <lane id=":1848485299_w0_0" index="0" allow="pedestrian" speed="1.00" length="3.31" width="4.00" shape="1451.71,1471.30 1453.25,1472.58 1456.03,1472.37 1457.35,1470.87 1456.35,1470.14 1455.38,1469.73 1454.42,1469.64 1453.50,1469.87 1452.59,1470.42"/>
    </edge>
    <edge id=":1848485299_w1" function="walkingarea">
        <lane id=":1848485299_w1_0" index="0" allow="pedestrian" speed="1.00" length="3.42" width="4.00" shape="1461.59,1466.07 1462.91,1464.57 1462.46,1461.51 1460.92,1460.24 1460.24,1461.24 1459.88,1462.23 1459.83,1463.21 1460.10,1464.18 1460.69,1465.13"/>
    </edge>
    <edge id=":1848485299_w2" function="walkingarea">
        <lane id=":1848485299_w2_0" index="0" allow="pedestrian" speed="1.00" length="9.00" width="4.00" shape="1453.44,1459.23 1455.99,1456.15 1454.45,1454.88 1445.27,1465.91 1446.81,1467.19 1449.37,1464.12"/>
    </edge>
    <edge id=":1848485304_0" function="internal">
        <lane id=":1848485304_0_0" index="0" disallow="tram rail_urban rail rail_electric pedestrian ship" speed="5.11" length="5.49" shape="1676.17,1544.42 1675.42,1544.81 1674.58,1546.18 1673.85,1547.80 1673.37,1548.97"/>
    </edge>
    <edge id=":1848485304_1" function="internal">
        <lane id=":1848485304_1_0" index="0" disallow="tram rail_urban rail rail_electric pedestrian ship" speed="13.89" length="10.36" shape="1676.17,1544.42 1673.42,1543.07 1671.46,1542.30 1669.46,1541.65 1666.54,1540.67"/>
    </edge>
    <edge id=":1848485304_2" function="internal">
        <lane id=":1848485304_2_0" index="0" disallow="tram rail_urban rail rail_electric pedestrian ship" speed="7.30" length="10.32" shape="1676.17,1544.42 1674.81,1543.15 1674.21,1541.14 1674.38,1538.39 1675.31,1534.92"/>
    </edge>
    <edge id=":1848485304_3" function="internal">
        <lane id=":1848485304_3_0" index="0" disallow="tram rail_urban rail rail_electric pedestrian ship" speed="3.65" length="4.67" shape="1676.17,1544.42 1675.48,1543.16 1675.49,1542.27 1676.22,1541.74 1677.65,1541.58"/>
    </edge>
    <edge id=":1848485304_4" function="internal">
        <lane id=":1848485304_4_0" index="0" disallow="tram rail_urban rail rail_electric pedestrian ship" speed="5.68" length="5.87" shape="1678.34,1535.95 1677.64,1538.21 1677.29,1539.90 1677.30,1541.03 1677.65,1541.58"/>
    </edge>
    <edge id=":1848485304_5" function="internal">
        <lane id=":1848485304_5_0" index="0" disallow="tram rail_urban rail rail_electric pedestrian ship" speed="13.89" length="13.93" shape="1678.34,1535.95 1673.37,1548.97"/>
    </edge>
    <edge id=":1848485304_6" function="internal">
        <lane id=":1848485304_6_0" index="0" disallow="tram rail_urban rail rail_electric pedestrian ship" speed="8.06" length="4.42" shape="1678.34,1535.95 1676.58,1539.21 1676.00,1539.64"/>
    </edge>
    <edge id=":1848485304_7" function="internal">
        <lane id=":1848485304_7_0" index="0" disallow="tram rail_urban rail rail_electric pedestrian ship" speed="3.65" length="2.34" shape="1678.34,1535.95 1677.19,1536.83 1676.30,1536.95"/>
    </edge>
    <edge id=":1848485304_16" function="internal">
        <lane id=":1848485304_16_0" index="0" speed="8.06" length="10.07" shape="1676.00,1539.64 1674.03,1541.09 1670.68,1541.57 1666.54,1540.67"/>
    </edge>
    <edge id=":1848485304_17" function="internal">
        <lane id=":1848485304_17_0" index="0" speed="3.65" length="2.34" shape="1676.30,1536.95 1675.68,1536.31 1675.31,1534.92"/>
    </edge>
    <edge id=":1848485304_8" function="internal">
        <lane id=":1848485304_8_0" index="0" disallow="tram rail_urban rail rail_electric pedestrian ship" speed="6.58" length="9.31" shape="1667.60,1537.65 1670.35,1538.28 1672.55,1538.03 1674.20,1536.91 1675.31,1534.92"/>
    </edge>
    <edge id=":1848485304_9" function="internal">
        <lane id=":1848485304_9_0" index="0" disallow="tram rail_urban rail rail_electric pedestrian ship" speed="13.89" length="10.81" shape="1667.60,1537.65 1670.64,1538.67 1672.74,1539.36 1674.78,1540.17 1677.65,1541.58"/>
    </edge>
    <edge id=":1848485304_10" function="internal">
        <lane id=":1848485304_10_0" index="0" disallow="tram rail_urban rail rail_electric pedestrian ship" speed="7.96" length="14.68" shape="1667.60,1537.65 1671.40,1539.57 1673.63,1542.09 1674.28,1545.23 1673.37,1548.97"/>
    </edge>
    <edge id=":1848485304_11" function="internal">
        <lane id=":1848485304_11_0" index="0" disallow="tram rail_urban rail rail_electric pedestrian ship" speed="3.65" length="4.67" shape="1667.60,1537.65 1668.47,1538.81 1668.58,1539.69 1667.94,1540.31 1666.54,1540.67"/>
    </edge>
    <edge id=":1848485304_12" function="internal">
        <lane id=":1848485304_12_0" index="0" disallow="tram rail_urban rail rail_electric pedestrian ship" speed="6.46" length="5.11" shape="1670.42,1547.73 1670.96,1545.43 1670.49,1543.48 1669.98,1542.94"/>
    </edge>
    <edge id=":1848485304_13" function="internal">
        <lane id=":1848485304_13_0" index="0" disallow="tram rail_urban rail rail_electric pedestrian ship" speed="13.89" length="13.71" shape="1670.42,1547.73 1675.31,1534.92"/>
    </edge>
    <edge id=":1848485304_14" function="internal">
        <lane id=":1848485304_14_0" index="0" disallow="tram rail_urban rail rail_electric pedestrian ship" speed="6.81" length="5.78" shape="1670.42,1547.73 1672.15,1544.30 1673.38,1542.80"/>
    </edge>
    <edge id=":1848485304_15" function="internal">
        <lane id=":1848485304_15_0" index="0" disallow="tram rail_urban rail rail_electric pedestrian ship" speed="3.65" length="2.34" shape="1670.42,1547.73 1671.62,1546.93 1672.52,1546.87"/>
    </edge>
    <edge id=":1848485304_18" function="internal">
        <lane id=":1848485304_18_0" index="0" speed="6.46" length="4.18" shape="1669.98,1542.94 1669.02,1541.90 1666.54,1540.67"/>
    </edge>
    <edge id=":1848485304_19" function="internal">
        <lane id=":1848485304_19_0" index="0" speed="6.81" length="4.83" shape="1673.38,1542.80 1673.93,1542.13 1675.77,1541.22 1677.65,1541.58"/>
    </edge>
    <edge id=":1848485304_20" function="internal">
        <lane id=":1848485304_20_0" index="0" speed="3.65" length="2.34" shape="1672.52,1546.87 1673.10,1547.55 1673.37,1548.97"/>
    </edge>
    <edge id=":1848485304_c0" function="crossing" crossingEdges="174183822#0 -174183822#0">
        <lane id=":1848485304_c0_0" index="0" allow="pedestrian" speed="1.00" length="6.40" width="4.00" shape="1676.61,1539.24 1673.66,1544.92"/>
    </edge>
    <edge id=":1848485304_c1" function="crossing" crossingEdges="-234827666#2 234827666#2">
        <lane id=":1848485304_c1_0" index="0" allow="pedestrian" speed="1.00" length="6.40" width="4.00" shape="1673.15,1536.29 1679.20,1538.36"/>
    </edge>
    <edge id=":1848485304_c2" function="crossing" crossingEdges="578964732 -578964732">
        <lane id=":1848485304_c2_0" index="0" allow="pedestrian" speed="1.00" length="6.40" width="4.00" shape="1667.89,1542.84 1670.02,1536.81"/>
    </edge>
    <edge id=":1848485304_c3" function="crossing" crossingEdges="234827666#3 -234827666#3">
        <lane id=":1848485304_c3_0" index="0" allow="pedestrian" speed="1.00" length="6.40" width="4.00" shape="1675.62,1547.74 1669.72,1545.27"/>
    </edge>
    <edge id=":1848485304_w0" function="walkingarea">
        <lane id=":1848485304_w0_0" index="0" allow="pedestrian" speed="1.00" length="3.15" width="4.00" shape="1676.40,1545.90 1674.85,1549.59 1677.61,1550.75 1674.51,1547.62 1675.44,1545.84 1671.89,1544.00"/>
    </edge>
    <edge id=":1848485304_w1" function="walkingarea">
        <lane id=":1848485304_w1_0" index="0" allow="pedestrian" speed="1.00" length="2.83" width="4.00" shape="1678.39,1540.16 1679.31,1538.39 1682.69,1537.44 1679.85,1536.47 1679.57,1537.04 1679.13,1537.75 1678.66,1538.50 1678.30,1539.21 1678.17,1539.80"/>
    </edge>
    <edge id=":1848485304_w2" function="walkingarea">
        <lane id=":1848485304_w2_0" index="0" allow="pedestrian" speed="1.00" length="3.43" width="4.00" shape="1673.79,1534.40 1670.96,1533.43 1668.79,1534.26 1668.13,1536.14 1669.54,1536.54 1670.77,1536.66 1671.81,1536.50 1672.66,1536.07 1673.32,1535.37"/>
    </edge>
    <edge id=":1848485304_w3" function="walkingarea">
        <lane id=":1848485304_w3_0" index="0" allow="pedestrian" speed="1.00" length="3.32" width="4.00" shape="1666.01,1542.18 1665.35,1544.07 1666.18,1545.95 1668.95,1547.11 1669.26,1546.03 1669.25,1545.05 1668.92,1544.18 1668.27,1543.41 1667.30,1542.74"/>
    </edge>
    <edge id=":1848485306_0" function="internal">
        <lane id=":1848485306_0_0" index="0" disallow="tram rail_urban rail rail_electric pedestrian ship" speed="6.35" length="5.91" shape="1917.65,1588.22 1916.30,1585.89 1914.50,1584.79 1913.39,1584.87"/>
    </edge>
    <edge id=":1848485306_1" function="internal">
        <lane id=":1848485306_1_0" index="0" disallow="tram rail_urban rail rail_electric pedestrian ship" speed="12.31" length="5.90" shape="1917.65,1588.22 1916.65,1583.85 1916.73,1582.43"/>
    </edge>
    <edge id=":1848485306_2" function="internal">
        <lane id=":1848485306_2_0" index="0" disallow="tram rail_urban rail rail_electric pedestrian ship" speed="3.65" length="2.21" shape="1917.65,1588.22 1917.97,1586.81 1918.49,1586.24"/>
    </edge>
    <edge id=":1848485306_12" function="internal">
        <lane id=":1848485306_12_0" index="0" speed="6.35" length="4.18" shape="1913.39,1584.87 1912.25,1584.94 1909.54,1586.32"/>
    </edge>
    <edge id=":1848485306_13" function="internal">
        <lane id=":1848485306_13_0" index="0" speed="12.31" length="13.47" shape="1916.73,1582.43 1916.92,1579.36 1918.47,1574.74 1921.29,1569.99"/>
    </edge>
    <edge id=":1848485306_14" function="internal">
        <lane id=":1848485306_14_0" index="0" speed="3.65" length="2.46" shape="1918.49,1586.24 1918.57,1586.15 1919.46,1586.24 1920.64,1587.08"/>
    </edge>
    <edge id=":1848485306_3" function="internal">
        <lane id=":1848485306_3_0" index="0" disallow="tram rail_urban rail rail_electric pedestrian ship" speed="11.29" length="16.21" shape="1923.89,1571.86 1921.47,1575.90 1920.12,1579.78 1919.84,1583.51 1920.64,1587.08"/>
    </edge>
    <edge id=":1848485306_4" function="internal">
        <lane id=":1848485306_4_0" index="0" disallow="tram rail_urban rail rail_electric pedestrian ship" speed="13.89" length="20.55" shape="1923.89,1571.86 1920.35,1576.75 1917.62,1580.02 1914.45,1582.82 1909.54,1586.32"/>
    </edge>
    <edge id=":1848485306_5" function="internal">
        <lane id=":1848485306_5_0" index="0" disallow="tram rail_urban rail rail_electric pedestrian ship" speed="3.65" length="4.67" shape="1923.89,1571.86 1922.54,1572.37 1921.66,1572.23 1921.24,1571.44 1921.29,1569.99"/>
    </edge>
    <edge id=":1848485306_6" function="internal">