<?xml version="1.0" encoding="UTF-8"?>

<!-- generated on 02/12/23 12:30:39 by Eclipse SUMO duarouter Version 1.0.1
<configuration xmlns:xsi="http://www.w3.org/2001/XMLSchema-instance" xsi:noNamespaceSchemaLocation="http://sumo.dlr.de/xsd/duarouterConfiguration.xsd">

    <input>
        <net-file value="osm.net.xml"/>
        <route-files value="osm.pedestrian.trips.xml"/>
    </input>

    <output>
        <output-file value="osm.pedestrian.rou.xml"/>
        <alternatives-output value="osm.pedestrian.rou.alt.xml"/>
    </output>

    <time>
        <begin value="0"/>
        <end value="3600.0"/>
    </time>

    <report>
        <no-warnings value="true"/>
        <ignore-errors value="true"/>
        <no-step-log value="true"/>
    </report>

</configuration>
-->

<routes xmlns:xsi="http://www.w3.org/2001/XMLSchema-instance" xsi:noNamespaceSchemaLocation="http://sumo.dlr.de/xsd/routes_file.xsd">
    <vType id="ped_pedestrian" vClass="pedestrian"/>
    <person id="ped0" type="ped_pedestrian" depart="0.00">
        <walk edges="243803403#15 -174124168#8 -174124168#7"/>
    </person>
    <person id="ped1" type="ped_pedestrian" depart="2.93">
        <walk edges="-576073381#0 29989867#1 -29989867#0 243803403#10 174124165#1 -422253680#6 -422253680#5 422253682#5 422253682#4 -422253681#4"/>
    </person>
    <person id="ped2" type="ped_pedestrian" depart="5.86">
        <walk edges="422253681#5 -422253682#4 -422253682#5 -422253680#5 -422253680#6 174124165#1 243803403#10 -29989867#0 29989867#1 29989867#2 29989867#3 29989867#4 174124147#4 576073382#1 576073382#0 -243805329#0 -243805329#1 -243805329#2 -243808884#3 243808884#3"/>
    </person>
    <person id="ped3" type="ped_pedestrian" depart="8.80">
        <walk edges="60892327 -60892336#1 460241214#6 460241214#4 460241214#3 460241214#2 460241214#1 460241214#0 -460241214#0 -243803403#2 -243803403#3 -243803403#6 -243803403#8 -243803403#9 -243803403#10 -174124153 174124157#0 726160113 515362686#2 -174124177#0 -174124177#1 -174124177#2 -174124177#3 -174124177#4 174124158#3 590843156#0 1037941162#4 1037941158 243808874#2 243808874#1 -1037941157#2 174183924#0 -174183924#2 -174183924#3"/>
    </person>
    <person id="ped5" type="ped_pedestrian" depart="14.66">
        <walk edges="-422253680#6 174124165#1 243803403#10 174124153 174124157#1 174124157#2 726160112 515362686#0 174124184#0 174124184#1 174124184#2 174124184#3 234829035 174124148#2"/>
    </person>
    <person id="ped6" type="ped_pedestrian" depart="17.59">
        <walk edges="-174124168#8 243803403#15 -243803403#14 60892351#6 174124157#1 174124157#0 726160129 -29989812#3 29989867#1 29989867#2 29989867#3 -29989867#4"/>
    </person>
    <person id="ped7" type="ped_pedestrian" depart="20.53">
        <walk edges="243805329#1 243805329#0 576073382#0 -174124183#2 -174124183#1 174124178#4"/>
    </person>
    <person id="ped8" type="ped_pedestrian" depart="23.46">
        <walk edges="-422253681#0 -60892322#2 -60892322#1 422253680#1 -576073336 -60892331#1 174124168#5 -60892351#3 -60892351#5 -60892351#6 174124157#1 174124157#0 726160113 515362686#2 -174124177#0 -174124177#1 -174124177#2 -174124177#3 -174124177#4 174124158#3 590843156#0 1037941162#4 1037941158 243808874#2 243808874#1 -1037941157#2 174183924#0 174183924#2 174183924#3"/>
    </person>
    <person id="ped9" type="ped_pedestrian" depart="26.39">
        <walk edges="576073395#1 576073394#3 576073394#2 576073394#1 576073394#0 576073401#0 -321545025#2 -321545025#3 -590843157#0 -590843157#1 1037941162#2 1037941162#3 1037941158 -243808874#2 -243808874#1 -243808874#0 -1037941154#1 -1037941156"/>
    </person>
    <person id="ped10" type="ped_pedestrian" depart="29.32">
        <walk edges="576073394#1 576073394#0 576073401#0 29989867#7 29989867#6 29989867#5 174124147#5 174124178#2 174124178#1 174124178#0 29989812#1"/>
    </person>
    <person id="ped11" type="ped_pedestrian" depart="32.25">
        <walk edges="-590843156#1 1037941162#4 1037941158 243808876#1 -243808876#0"/>
    </person>
    <person id="ped13" type="ped_pedestrian" depart="38.12">
        <walk edges="-174184031#3 -174184031#4 -174184031#5 -174184031#6 -243808880#2 -174184214#0"/>
    </person>
    <person id="ped14" type="ped_pedestrian" depart="41.05">
        <walk edges="590843150#1 590843153#3 590843153#4 174184214#0 174184214#1 174184214#2 174184214#3 174184214#4"/>
    </person>
    <person id="ped15" type="ped_pedestrian" depart="43.98">
        <walk edges="576073394#2 576073394#1 576073394#0 576073401#0 29989867#7 29989867#6 29989867#5 29989867#4 29989867#3 29989867#2 29989867#1 -29989867#0 243803403#10 174124165#1 422253680#6 422253680#5"/>
    </person>
    <person id="ped16" type="ped_pedestrian" depart="46.91">
        <walk edges="174124177#1 174124177#2 174124177#3 174124177#4 174124158#3 590843156#0 1037941162#4 1037941158 243808874#2 243808874#1 -1037941157#2 174183924#0 174183924#2 174183924#3 174183924#4 174183603#5 -174184224#0 725941602#0"/>
    </person>
    <person id="ped17" type="ped_pedestrian" depart="49.85">
        <walk edges="-60892331#2 -60892331#1 174124168#5 -60892351#3 -60892351#5 60892351#6 174124157#2 726160112 515362686#0 174124184#0"/>
    </person>
    <person id="ped19" type="ped_pedestrian" depart="55.71">
        <walk edges="590843156#2 -174124184#3 -174124184#2 174124184#1 174124162 174183822#1"/>
    </person>
    <person id="ped20" type="ped_pedestrian" depart="58.64">
        <walk edges="29989867#3 29989867#4 174124147#4 576073382#1 -174124183#2"/>
    </person>
    <person id="ped21" type="ped_pedestrian" depart="61.58">
        <walk edges="-422253682#0 -422253682#1 -422253682#2 -422253682#3 -422253682#4 -422253682#5 -422253680#5 -422253680#6 174124165#1 243803403#10 -174124153 174124157#0 726160113 515362686#2 515362686#1 -174124184#0 -174124184#1 -174124184#2 -174124184#3 590843156#2 243808883#3 243808883#2 -174184031#0 -576073386#0 590843153#0 -590843148#1 -576073386#2"/>
    </person>
    <person id="ped22" type="ped_pedestrian" depart="64.51">
        <walk edges="-174183877#1 -174183877#3 -174183877#4 590843157#1 590843157#0 576073382#0 576073382#1 174124147#4 29989867#4 29989867#3 29989867#2 29989867#1 -29989867#0 243803403#10 174124165#1 -422253680#6 -422253680#5 -422253682#5 -422253682#4"/>
    </person>
    <person id="ped23" type="ped_pedestrian" depart="67.44">
        <walk edges="-174184214#4 -174183924#2 174183924#0 -1037941157#2 243808874#1 243808874#2 1037941158 1037941162#3 1037941163#1 590843157#3 174124158#0 174124158#1 174124147#0 174124147#1 174124147#2 174124147#4 174124147#5 -174124178#2 -174124178#1 576073381#2 -576073381#2"/>
    </person>
    <person id="ped24" type="ped_pedestrian" depart="70.37">
        <walk edges="243803403#12 243803403#10 243803403#9 243803403#8 243803403#6 422253681#7 60892320 -60892326#1"/>
    </person>
    <person id="ped26" type="ped_pedestrian" depart="76.24">
        <walk edges="-576073344 -174124168#8 174124168#7 60892351#1 60892355#4"/>
    </person>
    <person id="ped27" type="ped_pedestrian" depart="79.17">
        <walk edges="243805329#0 -590843157#0 -590843157#1 -174183877#4 174183603#3 174183603#4 174183603#5 174184224#0"/>
    </person>
    <person id="ped28" type="ped_pedestrian" depart="82.10">
        <walk edges="-243808880#2 -174184031#6 -174184031#5 -174184031#4 -174184031#3 -174184031#2 -174184031#1 -174184031#0 243808883#2 243808883#3 590843156#2 -174124184#3 -174124184#2 174124184#1 174124184#0 515362686#0 726160112 174124157#2 60892351#6 -60892351#5 -60892351#3 -60892351#1 60892355#4 -60892331#3"/>
    </person>
    <person id="ped29" type="ped_pedestrian" depart="85.03">
        <walk edges="726172849 725918952#1 725918952#0 243808880#2 174184031#6 -174184031#5 -174184031#4 -174184031#3 -174184031#2 -174184031#1 -174184031#0 243808883#2 243808883#3 590843156#2 -174124184#3 -174124184#2 174124184#1 174124162 -174183822#0 578964732 60892349#3 243803403#15"/>
    </person>
    <person id="ped30" type="ped_pedestrian" depart="87.97">
        <walk edges="174124190#0 174124147#6 174124147#5 174124147#4 174124147#2 174124147#1 174124147#0 174124158#1 174124158#0 590843157#3 1037941163#1 1037941162#3 1037941158 243808874#2 243808874#1 1037941157#2 -174183924#0 576073384#4 -576073384#3 243809609#0"/>
    </person>
    <person id="ped31" type="ped_pedestrian" depart="90.90">
        <walk edges="590843148#1 590843153#0 -576073386#0 -174184031#0 243808883#2 243808883#3 590843156#2 -174124184#3 -174124184#2 174124184#1 174124184#0 515362686#0 726160112 174124157#2 60892351#6 -60892351#5 -60892351#3 174124168#5 174124168#4 174124168#3 174124168#2 -422253681#3 576073340"/>
    </person>
    <person id="ped32" type="ped_pedestrian" depart="93.83">
        <walk edges="-422253682#1 -422253682#2 -422253682#3 -422253682#4 -422253682#5 -422253680#5 -422253680#6 174124165#1 243803403#10 -174124153 174124157#0 726160113 515362686#2 -174124177#0"/>
    </person>
    <person id="ped33" type="ped_pedestrian" depart="96.76">
        <walk edges="-576073402#4 174184224#2 174184224#1 174184224#0 174183603#5 174183924#4 174183924#3 174183924#2 174183924#0 -1037941157#2 243808874#1 243808874#2 1037941158 1037941162#4 590843156#0 174124158#3 174124177#4 174124177#3 174124177#2 174124177#1 174124177#0 515362686#1 515362686#0 726160112 174124157#2 60892351#6 -243803403#14 -576073344"/>
    </person>
    <person id="ped34" type="ped_pedestrian" depart="99.69">
        <walk edges="-422253678#0 -60892323#2 174124168#3 174124168#4 174124168#5 -60892351#3 -60892351#5 60892351#6 174124157#2 592439456 234827666#3 -174183822#0 -174183822#1 -174183822#2 60892361#0"/>
    </person>
    <person id="ped35" type="ped_pedestrian" depart="102.63">
        <walk edges="60892322#2 60892322#1 422253680#1 -576073336 -60892331#1 174124168#5 -60892351#3 -60892351#5 -60892351#6 174124157#1 174124157#0 726160113 515362686#2 -174124177#0 -174124177#1 -174124177#2 -174124177#3 -174124177#4 174124158#3 590843156#0 1037941162#4 1037941158 243808874#2 243808874#1 -1037941157#2 174183924#0 174183924#2 174183924#3 174183924#4 -174183603#4 726160116#0 726160116#1 726160116#2 -576073402#3"/>
    </person>
    <person id="ped36" type="ped_pedestrian" depart="105.56">
        <walk edges="243808874#1 243808874#2 1037941158 1037941162#4 -590843156#1 -590843156#2 578964735#3 578964735#2 578964735#1 -243808873#0 -243808873#1 174124191#1 234827666#1 -60892348#1"/>
    </person>
    <person id="ped37" type="ped_pedestrian" depart="108.49">
        <walk edges="60892345 60892355#2 576073346 -422253677 60892356#0 -174124168#10 -60892348#0 -60892348#1 234827666#1 174124191#1 -243808873#1 -243808873#0 578964735#1 578964735#2 578964735#3 -590843156#2 243808883#3 243808883#2 -174184031#0 -174184031#1 -174184031#2 -174184031#3 -174184031#4 -174184031#5 -174184031#6 -243808880#2 -174184214#0 -174184214#1 -506297707#0 -506297707#1 -506297707#2 -506297707#3 506297706#5 174183924#4 174183603#5 -174184224#0 -174184224#1 -726172851"/>
    </person>
    <person id="ped38" type="ped_pedestrian" depart="111.42">
        <walk edges="-576073342 422253680#6 174124165#1 243803403#10 -174124153 174124157#0 726160113 515362686#2 -174124177#0 -174124177#1 -174124177#2 -174124177#3 -174124177#4 174124158#3 590843156#0 1037941162#4 1037941158 243808874#2 243808874#1 1037941157#2 -174183924#0 576073384#4 576073384#3 -576073384#2 243809608#0 243809608#1 -506297706#1 -506297706#0"/>
    </person>
    <person id="ped39" type="ped_pedestrian" depart="114.35">
        <walk edges="174124190#4 174124177#0 515362686#2 726160113 174124157#0 174124157#1 -60892351#6 -60892351#5 -60892351#3 174124168#5 -60892331#1 -576073336"/>
    </person>
    <person id="ped40" type="ped_pedestrian" depart="117.29">
        <walk edges="174183877#4 590843157#2 590843157#3 174124158#0 174124158#1 174124158#2 -174124177#4 -174124177#3 -174124177#2 -174124177#1 -174124177#0 515362686#2 726160113 174124157#0 174124157#1 -60892351#6 -60892351#5 -60892351#3 174124168#5 60892331#1"/>
    </person>
    <person id="ped41" type="ped_pedestrian" depart="120.22">
        <walk edges="-60892350#1 -60892350#2 -60892351#0 -60892355#4 -60892331#2 -60892331#1 -60892331#0 -576073342 422253680#6 -422253680#6"/>
    </person>
    <person id="ped42" type="ped_pedestrian" depart="123.15">
        <walk edges="738384121#1 -738384122 515366120#2 515366120#1 174184459#6 174184459#5 174184459#4 174184459#3 174184459#2 174184459#1 174184459#0 -174184459#0 -174184459#1 -174184459#2 -174184459#3 -174184459#4 -174184459#5 174124148#2 234829035 174124184#3 174124184#2 174124184#1 174124184#0 515362686#0 726160112 174124157#2"/>
    </person>
    <person id="ped43" type="ped_pedestrian" depart="126.08">
        <walk edges="-174184031#2 -174184031#3 -174184031#4 -174184031#5 -174184031#6 243808880#0 243808879 243808876#2 1037941158 1037941162#3 1037941163#1 590843157#3 174124158#0 -174124183#4"/>
    </person>
    <person id="ped44" type="ped_pedestrian" depart="129.02">
        <walk edges="-174184224#2 -174184224#1 -174184224#0 174183603#5 174183924#4 506297706#5 -506297707#3 -506297707#2 -506297707#1 -506297707#0 -174184214#1 -174184214#0 -243808880#2 -174184031#6 -174184031#5 -174184031#4 -174184031#3 -174184031#2 -174184031#1 -174184031#0 243808883#2 243808883#3 -590843156#2 578964735#3 578964735#2 578964735#1 -243808873#0 -243808873#1 174124191#1 234827666#0"/>
    </person>
    <person id="ped46" type="ped_pedestrian" depart="134.88">
        <walk edges="-174183603#0 174183603#1 174183603#2 174183877#4 -590843157#1 590843157#0 576073382#0 576073382#1 174124147#4 174124147#5 -174124178#2 -174124178#1 -174124178#0 -29989812#1 -576073418 -243803403#3 -243803403#2 -460241214#0 460241214#0 460241214#1 460241214#2 460241214#3 460241214#4 -60892335"/>
    </person>
    <person id="ped47" type="ped_pedestrian" depart="137.81">
        <walk edges="738384121#0 -738384122 515366120#2 515366120#1 174184459#6 174184459#5 174184459#4 174184459#3 174184459#2 174184459#1 174184459#0 -174184459#0 -174184459#1 -174184459#2 -174184459#3 -174184459#4 -174184459#5 174124148#2 234829035 174124184#3 174124184#2 174124184#1 174124184#0 515362686#0 726160112 174124157#2 60892351#6 60892351#5 60892351#3 174124168#7"/>
    </person>
    <person id="ped48" type="ped_pedestrian" depart="140.74">
        <walk edges="725928446#1 243808885#0 -174183603#2 -174183603#3 -174183603#4 174183924#4 174183924#3 174183924#2 174183924#0 -1037941157#2 243808874#1 243808874#2 1037941158 1037941162#4 590843156#1"/>
    </person>
    <person id="ped49" type="ped_pedestrian" depart="143.68">
        <walk edges="-1058515627 -174184459#2 -174184459#3 -174184459#4 -174184459#5 174124148#2 234829035 578964735#3 578964735#2 578964735#1 -243808873#0 -243808873#1 174124191#1 234827666#1 -60892348#1 -60892348#0 -174124168#10 60892356#0 422253677"/>
    </person>
    <person id="ped50" type="ped_pedestrian" depart="146.61">
        <walk edges="243809608#0 -576073384#2 576073384#3 576073384#4 -174183924#0 1037941157#2 243808874#1 243808874#2 1037941158 1037941162#4 590843156#0 174124158#3 174124177#4 174124177#3 174124177#2 174124177#1"/>
    </person>
    <person id="ped51" type="ped_pedestrian" depart="149.54">
        <walk edges="-576073344 -243803403#14 -243803403#13 -243803403#12 243803403#10 -243803403#9 -243803403#8 -243803403#6 -243803403#3 243803403#2"/>
    </person>
    <person id="ped52" type="ped_pedestrian" depart="152.47">
        <walk edges="-174184419#1 -60892381#1 -60892381#0"/>
    </person>
    <person id="ped54" type="ped_pedestrian" depart="158.34">
        <walk edges="60892322#2 60892322#1 422253680#1 -576073336"/>
    </person>
    <person id="ped55" type="ped_pedestrian" depart="161.27">
        <walk edges="174124147#5 174124147#4 174124147#2 174124147#1 174124147#0 174124158#1 174124158#0 590843157#3 1037941163#1 1037941162#3 1037941158 243808874#2 243808874#1 1037941157#2 -174183924#0 576073384#4 576073384#3 -243809609#0"/>
    </person>
    <person id="ped56" type="ped_pedestrian" depart="164.20">
        <walk edges="60892343 243803403#12 243803403#10 243803403#9 243803403#8 243803403#6 422253681#7 60892320"/>
    </person>
    <person id="ped57" type="ped_pedestrian" depart="167.13">
        <walk edges="-576073394#3 576073394#2 576073394#1 576073394#0 576073401#0 29989867#7 29989867#6 29989867#5 29989867#4 29989867#3 29989867#2 29989867#1 -29989812#3 726160129 174124157#0 174124157#1 60892351#6 243803403#14"/>
    </person>
    <person id="ped58" type="ped_pedestrian" depart="170.07">
        <walk edges="174184224#0 174183603#5 174183924#4 174183924#3 174183924#2 174183924#0 -1037941157#2 243808874#1 -243808875#2"/>
    </person>
    <person id="ped59" type="ped_pedestrian" depart="173.00">
        <walk edges="506297706#4 -174183924#3 -174183924#2 174183924#0 -1037941157#2 243808874#1 243808874#2 1037941158 1037941162#4 590843156#0 174124158#3 174124177#4"/>
    </person>
    <person id="ped60" type="ped_pedestrian" depart="175.93">
        <walk edges="576073342 -60892331#0 174124168#5 174124168#7 174124168#8 174124168#9"/>
    </person>
    <person id="ped61" type="ped_pedestrian" depart="178.86">
        <walk edges="-1037941154#0 174183924#2 -174184214#3 -174184214#2 -174184214#1 -174184214#0 -590843153#4 -590843153#3 -590843153#2 -590843149#0"/>
    </person>
    <person id="ped62" type="ped_pedestrian" depart="181.79">
        <walk edges="-174124168#13 -174124168#12 -174124168#10 -174124168#9 -174124168#8 -174124168#7 60892351#3"/>
    </person>
    <person id="ped63" type="ped_pedestrian" depart="184.73">
        <walk edges="60892322#4 60892322#3 60892322#2 60892322#1 422253680#1 -576073336 -60892331#1 174124168#5 -60892351#3 -60892351#5 60892351#6 174124157#2 592439456 -234827666#3 578964732"/>
    </person>
    <person id="ped64" type="ped_pedestrian" depart="187.66">
        <walk edges="-576073400#0 576073394#0 576073401#0 -321545025#2 -321545025#3 -590843157#0 -590843157#1 590843157#2 590843157#3 174124158#0 174124158#1 174124158#2 -174124177#4 -174124177#3 -174124177#2 578964733#1 -174124184#1 -174124190#4"/>
    </person>
    <person id="ped66" type="ped_pedestrian" depart="193.52">
        <walk edges="-174183924#2 174183924#0 -1037941157#2 243808874#1 243808874#2 1037941158 1037941162#3 1037941162#2"/>
    </person>
    <person id="ped67" type="ped_pedestrian" depart="196.46">
        <walk edges="-174183603#5 -174183924#4 -506297706#4 -506297706#3 506297706#2"/>
    </person>
    <person id="ped68" type="ped_pedestrian" depart="199.39">
        <walk edges="506297707#1 506297707#0 174184214#1 174184214#0 -243808880#2 -243808880#0 243808875#3 -243808874#2 1037941158 1037941162#4 590843156#0 174124158#3 -174124177#4 -174124177#3 -174124177#2 -174124177#1 -174124177#0 515362686#2 726160113 174124157#0 -174124153 -243803403#10 -243803403#9 -243803403#8 -243803403#6 -243803403#3 -243803403#2 -460241214#0 460241214#0 -243803403#1 -243803403#0"/>
    </person>
    <person id="ped69" type="ped_pedestrian" depart="202.32">
        <walk edges="1037941159 1037941160#3 174124183#3"/>
    </person>
    <person id="ped70" type="ped_pedestrian" depart="205.25">
        <walk edges="-576073342 -422253682#6 -422253682#5 -422253682#4 422253681#5 422253681#6 60892320 -60892326#1 60892321#0 60892321#1"/>
    </person>
    <person id="ped72" type="ped_pedestrian" depart="211.12">
        <walk edges="174124177#4 -174124177#3 -174124177#2 -174124177#1 -174124177#0 515362686#2 726160113 174124157#0 -174124153 243803403#10 174124165#1 422253680#6"/>
    </person>
    <person id="ped73" type="ped_pedestrian" depart="214.05">
        <walk edges="-29989867#6 -174124171#0 590843157#0 -590843157#1 174183877#4 174183877#3 174183877#1 -576073402#1"/>
    </person>
    <person id="ped74" type="ped_pedestrian" depart="216.98">
        <walk edges="738383158 174184459#0 -174184459#0 -174184459#1 -174184459#2 -174184459#3 -174184459#4 -174184459#5 174124148#2 234829035 -590843156#2 -590843156#1 -590843156#0 691028868 -590843157#3 -590843157#2 -590843157#1 -590843157#0 243805329#0 243805329#1"/>
    </person>
    <person id="ped75" type="ped_pedestrian" depart="219.91">
        <walk edges="-725918952#0 -243808880#2 -243808880#0 243808875#3 -243808874#2 1037941158 1037941162#4 590843156#0 174124158#3 -174124177#4 -174124177#3 -174124177#2 -174124177#1 -174124177#0 515362686#2 726160113 174124157#0 -174124153 243803403#10 174124165#1"/>
    </person>
    <person id="ped76" type="ped_pedestrian" depart="222.85">
        <walk edges="-174184459#4 -174184459#5 174124148#2 234829035 174124184#3 174124184#2 174124184#1 174124184#0 515362686#0 726160112 174124157#2 174124157#1 174124153 243803403#10 174124165#1 -422253680#6 -422253680#5 -422253682#5 -422253682#4 -422253681#5"/>
    </person>
    <person id="ped77" type="ped_pedestrian" depart="225.78">
        <walk edges="-590843153#4 -174184214#0 -174184214#1 -174184214#2 -174184214#3 174183924#2"/>
    </person>
    <person id="ped78" type="ped_pedestrian" depart="228.71">
        <walk edges="-422253682#2 422253682#3 -422253681#4 -422253681#3 -422253681#1 -422253681#0"/>
    </person>
    <person id="ped80" type="ped_pedestrian" depart="234.57">
        <walk edges="-422253682#1 -422253682#0 -460241214#2 -460241214#1 -460241214#0 460241214#0 460241214#1 460241214#2 460241214#3 460241214#4 -60892335 60892338#1 60892338#0"/>
    </person>
    <person id="ped82" type="ped_pedestrian" depart="240.44">
        <walk edges="-460241214#1 60892321#1 60892321#0 60892326#0 -243803403#3 -243803403#6 -243803403#8 -243803403#9 -243803403#10 -174124153 174124157#0 726160113 515362686#2 -174124177#0 -174124177#1 -174124177#2 -174124177#3 -174124177#4 174124158#3 590843156#0 1037941162#4 1037941158 -243808874#2 -243808875#3 -243808880#0 243808880#2"/>
    </person>
    <person id="ped83" type="ped_pedestrian" depart="243.37">
        <walk edges="-422253680#1 -422253680#3 174124168#4 174124168#5 -60892351#3 -60892351#5 -243803403#13"/>
    </person>
    <person id="ped84" type="ped_pedestrian" depart="246.30">
        <walk edges="60892355#3 60892355#2 576073346 -422253677 60892356#0 -174124168#10 -60892348#0 -60892348#1 234827666#1 174124191#1 -243808873#1 -243808873#0 578964735#1 578964735#2 578964735#3 -590843156#2 243808883#3 243808883#2 -174184031#0 -174184031#1 -174184031#2 -174184031#3 -174184031#4 -174184031#5 -174184031#6 -243808880#2 -174184214#0 -174184214#1 -506297707#0 -506297707#1 -506297707#2 -506297707#3 506297706#5 174183924#4 174183603#5"/>
    </person>
    <person id="ped85" type="ped_pedestrian" depart="249.23">
        <walk edges="1037941157#2 243808874#1 243808874#2 1037941158 1037941162#3 1037941163#1 590843157#3 174124158#0 174124158#1 174124147#0 174124147#1 174124147#2 174124147#4 174124147#5 -174124178#2 -174124178#1 576073381#2"/>
    </person>
    <person id="ped86" type="ped_pedestrian" depart="252.17">
        <walk edges="576073394#3 576073394#2 576073394#1 576073394#0 576073401#0 29989867#7 29989867#6 29989867#5 174124147#5 -174124178#2 -174124178#1 -174124178#0 -29989812#1 -29989812#0"/>
    </person>
    <person id="ped89" type="ped_pedestrian" depart="260.96">
        <walk edges="422253680#5 422253680#6 174124165#1 243803403#10 -174124153 174124157#0 726160113 515362686#2 515362686#1 -174124184#0 -174124184#1 -174124184#2 -174124184#3 590843156#2 243808883#3"/>
    </person>
    <person id="ped90" type="ped_pedestrian" depart="263.90">
        <walk edges="726160129 726160128 515362686#2 -174124177#0 -174124177#1 -174124177#2 -174124177#3 -174124177#4 174124158#3 590843156#0 1037941162#4 1037941158 -243808874#2 -243808875#3 -243808880#0 -243808880#2 -174184214#0 -174184214#1"/>
    </person>
    <person id="ped91" type="ped_pedestrian" depart="266.83">
        <walk edges="-60892351#1 -60892351#3 -60892351#5 -60892351#6 174124157#1 174124157#0 726160113 515362686#2 -174124177#0 -174124177#1 -174124177#2 -174124177#3 -174124177#4 174124158#3 590843156#0 -590843156#0"/>
    </person>
    <person id="ped92" type="ped_pedestrian" depart="269.76">
        <walk edges="590843156#2 243808883#3 243808883#2 -174184031#0 -174184031#1 -174184031#2 -174184031#3 -174184031#4 -174184031#5 -174184031#6 -243808880#2 -174184214#0 -174184214#1 -506297707#0 -506297707#1 -506297707#2 -506297707#3 506297706#5 -506297706#4 -506297706#3 -506297706#2"/>
    </person>
    <person id="ped93" type="ped_pedestrian" depart="272.69">
        <walk edges="-29989812#0 -29989812#1 -174124178#0 -174124178#1 -174124178#2 174124147#5 174124147#4 174124147#2 174124147#1 174124147#0 174124158#1 174124158#0 590843157#3 1037941163#1 1037941162#3 1037941158 243808874#2 243808874#1 -1037941157#2 174183924#0 174183924#2 174183924#3 174183924#4 -174183603#4 -726160116#0 -726160116#1"/>
    </person>
    <person id="ped95" type="ped_pedestrian" depart="278.56">
        <walk edges="-506297706#3 -506297706#4 506297706#5 -506297707#3 -506297707#2 -506297707#1 -506297707#0 -174184214#1 -174184214#0 -243808880#2 -174184031#6 -174184031#5 -174184031#4 -174184031#3 -174184031#2 -174184031#1 -174184031#0 243808883#2 243808883#3 -590843156#2 578964735#3 578964735#2 578964735#1 -243808873#0 -243808873#1 174124191#1 234827666#1 -60892348#1 -60892348#0 174124168#10 -60892356#0 -60892356#1 -60892356#2 60892350#0"/>
    </person>
    <person id="ped96" type="ped_pedestrian" depart="281.49">
        <walk edges="-725928446#1 725928446#2 -725941602#1 -726160116#0 -174183603#4 174183924#4 506297706#5 -506297707#3 -506297707#2 -506297707#1 -506297707#0 -174184214#1 -174184214#0 -243808880#2 -174184031#6 -174184031#5 -174184031#4 -174184031#3 -174184031#2 -174184031#1 -174184031#0 243808883#2 243808883#3 590843156#2"/>
    </person>
    <person id="ped97" type="ped_pedestrian" depart="284.42">
        <walk edges="174124183#3 174124183#4 174124158#1 174124158#2 -174124177#4 -174124177#3 -60892361#2 -174124184#2"/>
    </person>
    <person id="ped98" type="ped_pedestrian" depart="287.35">
        <walk edges="782006659 243808873#0 578964735#1"/>
    </person>
    <person id="ped99" type="ped_pedestrian" depart="290.29">
        <walk edges="725918952#5 725918952#4 725918952#3 725918952#1 725918952#0 243808880#2 174184031#6 -174184031#5 -174184031#4 -174184031#3 -174184031#2 -174184031#1 -174184031#0 243808883#2 243808883#3 590843156#2 -174124184#3 -174124184#2 174124184#1 174124184#0 515362686#0 726160112 174124157#2 60892351#6 60892351#5 60892351#3 60892351#1 60892351#0"/>
    </person>
    <person id="ped100" type="ped_pedestrian" depart="293.22">
        <walk edges="590843150#3 590843150#2 576073386#3 576073386#2 576073386#1 576073386#0 174184031#0 -243808883#2"/>
    </person>
    <person id="ped101" type="ped_pedestrian" depart="296.15">
        <walk edges="1037941162#2 -590843157#2 590843157#3 174124158#0 174124158#1 174124158#2 -174124177#4 -174124177#3 -174124177#2 -174124177#1 -174124177#0 515362686#2 726160113 174124157#0 174124157#1 -60892351#6 -60892351#5 -60892351#3 174124168#5 -60892331#1 -576073336 422253680#1 -422253680#0"/>
    </person>
    <person id="ped102" type="ped_pedestrian" depart="299.08">
        <walk edges="-60892350#2 -60892345 -60892355#2 -576073346 422253677 -60892356#0 174124168#10 60892348#0 60892348#1 -234827666#1 -174124191#0"/>
    </person>
    <person id="ped103" type="ped_pedestrian" depart="302.01">
        <walk edges="-60892331#3 60892355#4 -60892351#1 -60892351#3 -60892351#5 -60892351#6 174124157#1 174124157#0 726160113 515362686#2 -174124177#0 -174124177#1 -174124177#2 -174124177#3 -174124177#4 174124158#2 174124158#1 174124158#0 590843157#3 590843157#2 174183877#4 174183877#3 -725928446#2 726171222"/>
    </person>
    <person id="ped104" type="ped_pedestrian" depart="304.95">
        <walk edges="-576073342 422253680#6 174124165#1 243803403#10 -29989867#0 -29989867#1 576073381#1 576073381#2"/>
    </person>
    <person id="ped108" type="ped_pedestrian" depart="316.67">
        <walk edges="-243808876#0 243808876#1 1037941158 1037941162#3 1037941162#2 -590843157#1 -590843157#0 -321545025#3 -321545025#2 576073401#0 576073394#0 -576073394#1"/>
    </person>
    <person id="ped109" type="ped_pedestrian" depart="319.61">
        <walk edges="725918952#5 725918952#4 725918952#3 725918952#1 725918952#0 243808880#2 174184031#6 -174184031#5 -174184031#4 -174184031#3 -174184031#2 -174184031#1 -174184031#0 243808883#2 243808883#3 -590843156#2 578964735#3 578964735#2 174183822#3"/>
    </person>
    <person id="ped111" type="ped_pedestrian" depart="325.47">
        <walk edges="-174124190#3 -174124177#1 -174124177#2 -174124177#3 -174124177#4 174124158#2 174124158#1 174124158#0 590843157#3 590843157#2 174183877#4"/>
    </person>
    <person id="ped112" type="ped_pedestrian" depart="328.40">
        <walk edges="174124147#7 174124147#6 174124147#5 174124147#4 174124147#2 174124147#1 174124147#0 174124158#1 174124158#0 590843157#3 1037941163#1 1037941162#3 1037941158 -243808874#2 -243808875#3 -243808880#0 243808880#2 725918952#0 725918952#1 -576073386#5 590843151#2"/>
    </person>
    <person id="ped114" type="ped_pedestrian" depart="334.27">
        <walk edges="-174183877#1 -725941602#1 -726160116#0 174183603#4 -174183924#4 -506297706#4 -506297706#3 -506297706#2 -506297706#1 -243809606#1 -174184214#8 -243809611#1 -243809611#2"/>
    </person>
    <person id="ped115" type="ped_pedestrian" depart="337.20">