<?xml version="1.0" encoding="UTF-8"?>
<!-- generated on 2023-02-12 12:30:38.320805 by $Id$ via randomTrips.py
  options: 
-->
<routes xmlns:xsi="http://www.w3.org/2001/XMLSchema-instance" xsi:noNamespaceSchemaLocation="http://sumo.dlr.de/xsd/routes_file.xsd">
    <vType id="veh_passenger" vClass="passenger">
    </vType>
    <trip id="veh0" depart="0.00" departLane="best" from="243808883#2" to="-174124178#2" type="veh_passenger"/>
    <trip id="veh1" depart="2.26" departLane="best" from="-576073386#1" to="-422253681#7" type="veh_passenger"/>
    <trip id="veh2" depart="4.52" departLane="best" from="460242019#0" to="243809611#3" type="veh_passenger"/>
    <trip id="veh3" depart="6.79" departLane="best" from="60892330#0" to="-174184214#0" type="veh_passenger"/>
    <trip id="veh4" depart="9.05" departLane="best" from="-725918952#1" to="-174124183#0" type="veh_passenger"/>
    <trip id="veh5" depart="11.31" departLane="best" from="-174124171#1" to="-30005909#0" type="veh_passenger"/>
    <trip id="veh6" depart="13.57" departLane="best" from="243809609#1" to="174124184#3" type="veh_passenger"/>
    <trip id="veh7" depart="15.84" departLane="best" from="-422253682#0" to="174184214#3" type="veh_passenger"/>
    <trip id="veh8" depart="18.10" departLane="best" from="576073400#0" to="-174124168#10" type="veh_passenger"/>
    <trip id="veh9" depart="20.36" departLane="best" from="-60892323#2" to="-243808876#2" type="veh_passenger"/>
    <trip id="veh11" depart="24.89" departLane="best" from="576073398#1" to="422253681#5" type="veh_passenger"/>
    <trip id="veh12" depart="27.15" departLane="best" from="174183822#1" to="726160116#1" type="veh_passenger"/>
    <trip id="veh13" depart="29.41" departLane="best" from="422253682#3" to="-174124191#0" type="veh_passenger"/>
    <trip id="veh14" depart="31.67" departLane="best" from="-460241214#1" to="-576073394#0" type="veh_passenger"/>
    <trip id="veh15" depart="33.93" departLane="best" from="-174183905#1" to="-460241214#0" type="veh_passenger"/>
    <trip id="veh16" depart="36.20" departLane="best" from="243808880#2" to="-60892323#4" type="veh_passenger"/>
    <trip id="veh17" depart="38.46" departLane="best" from="-576073384#0" to="60892361#1" type="veh_passenger"/>
    <trip id="veh19" depart="42.98" departLane="best" from="-243809609#1" to="422253681#4" type="veh_passenger"/>
    <trip id="veh20" depart="45.25" departLane="best" from="-243808885#0" to="-60892331#2" type="veh_passenger"/>
    <trip id="veh21" depart="47.51" departLane="best" from="726160116#2" to="243808873#1" type="veh_passenger"/>
    <trip id="veh24" depart="54.30" departLane="best" from="-460241214#2" to="-174124183#1" type="veh_passenger"/>
    <trip id="veh25" depart="56.56" departLane="best" from="-590843153#0" to="-576073357" type="veh_passenger"/>
    <trip id="veh27" depart="61.08" departLane="best" from="60892322#2" to="-576073402#0" type="veh_passenger"/>
    <trip id="veh28" depart="63.34" departLane="best" from="243809611#3" to="-60892348#0" type="veh_passenger"/>
    <trip id="veh29" depart="65.61" departLane="best" from="60892347" to="-726160116#1" type="veh_passenger"/>
    <trip id="veh30" depart="67.87" departLane="best" from="-576073381#2" to="-506297706#3" type="veh_passenger"/>
    <trip id="veh31" depart="70.13" departLane="best" from="174184214#2" to="-576073344" type="veh_passenger"/>
    <trip id="veh32" depart="72.39" departLane="best" from="174184459#5" to="60892338#1" type="veh_passenger"/>
    <trip id="veh34" depart="76.92" departLane="best" from="726172851" to="174124168#13" type="veh_passenger"/>
    <trip id="veh35" depart="79.18" departLane="best" from="-174184031#6" to="-174124191#2" type="veh_passenger"/>
    <trip id="veh37" depart="83.71" departLane="best" from="576073394#3" to="-60892356#2" type="veh_passenger"/>
    <trip id="veh38" depart="85.97" departLane="best" from="-174183603#5" to="-60892331#4" type="veh_passenger"/>
    <trip id="veh40" depart="90.49" departLane="best" from="-174124168#10" to="422253680#1" type="veh_passenger"/>
    <trip id="veh41" depart="92.76" departLane="best" from="-174184419#4" to="-60892363#2" type="veh_passenger"/>
    <trip id="veh43" depart="97.28" departLane="best" from="60892322#1" to="-576073344" type="veh_passenger"/>
    <trip id="veh44" depart="99.54" departLane="best" from="174124178#1" to="-243809611#1" type="veh_passenger"/>
    <trip id="veh45" depart="101.80" departLane="best" from="-576073402#3" to="243808873#0" type="veh_passenger"/>
    <trip id="veh46" depart="104.07" departLane="best" from="243803403#6" to="-243808876#0" type="veh_passenger"/>
    <trip id="veh47" depart="106.33" departLane="best" from="576073342" to="174124183#3" type="veh_passenger"/>
    <trip id="veh48" depart="108.59" departLane="best" from="-1037941157#0" to="-576073418" type="veh_passenger"/>
    <trip id="veh49" depart="110.85" departLane="best" from="60892322#4" to="576073418" type="veh_passenger"/>
    <trip id="veh51" depart="115.38" departLane="best" from="-174184031#1" to="174124147#7" type="veh_passenger"/>
    <trip id="veh52" depart="117.64" departLane="best" from="-174183822#1" to="460241214#8" type="veh_passenger"/>
    <trip id="veh54" depart="122.17" departLane="best" from="-576073381#2" to="60892322#2" type="veh_passenger"/>
    <trip id="veh55" depart="124.43" departLane="best" from="-725918952#4" to="-422253680#1" type="veh_passenger"/>
    <trip id="veh56" depart="126.69" departLane="best" from="174183860" to="422253681#5" type="veh_passenger"/>
    <trip id="veh58" depart="131.21" departLane="best" from="-726172846" to="174124168#7" type="veh_passenger"/>
    <trip id="veh59" depart="133.48" departLane="best" from="-234829035" to="-422253682#1" type="veh_passenger"/>
    <trip id="veh60" depart="135.74" departLane="best" from="-60892323#0" to="174184214#2" type="veh_passenger"/>
    <trip id="veh61" depart="138.00" departLane="best" from="-174183822#3" to="243803403#6" type="veh_passenger"/>
    <trip id="veh62" depart="140.26" departLane="best" from="590843153#3" to="-174183877#0" type="veh_passenger"/>
    <trip id="veh63" depart="142.53" departLane="best" from="-422253681#1" to="-243803403#3" type="veh_passenger"/>
    <trip id="veh64" depart="144.79" departLane="best" from="60892351#5" to="174183905#1" type="veh_passenger"/>
    <trip id="veh65" depart="147.05" departLane="best" from="174124157#1" to="515366120#2" type="veh_passenger"/>
    <trip id="veh66" depart="149.31" departLane="best" from="576073398#1" to="-29989867#0" type="veh_passenger"/>
    <trip id="veh68" depart="153.84" departLane="best" from="460241214#0" to="243809610#1" type="veh_passenger"/>
    <trip id="veh70" depart="158.36" departLane="best" from="-29989867#3" to="-725918952#0" type="veh_passenger"/>
    <trip id="veh71" depart="160.62" departLane="best" from="-726172850" to="590843157#1" type="veh_passenger"/>
    <trip id="veh72" depart="162.89" departLane="best" from="174183924#3" to="-174183603#0" type="veh_passenger"/>
    <trip id="veh73" depart="165.15" departLane="best" from="728815447" to="578964733#0" type="veh_passenger"/>
    <trip id="veh76" depart="171.94" departLane="best" from="-60892349#0" to="726172848" type="veh_passenger"/>
    <trip id="veh77" depart="174.20" departLane="best" from="-576073381#2" to="515366120#1" type="veh_passenger"/>
    <trip id="veh78" depart="176.46" departLane="best" from="1037941157#1" to="-60892358" type="veh_passenger"/>
    <trip id="veh80" depart="180.99" departLane="best" from="174184031#3" to="422253678#1" type="veh_passenger"/>
    <trip id="veh81" depart="183.25" departLane="best" from="-243808883#2" to="-576073395#0" type="veh_passenger"/>
    <trip id="veh83" depart="187.77" departLane="best" from="174183877#0" to="460241195#0" type="veh_passenger"/>
    <trip id="veh84" depart="190.03" departLane="best" from="-174124191#1" to="174184031#5" type="veh_passenger"/>
    <trip id="veh85" depart="192.30" departLane="best" from="174124178#3" to="590843153#1" type="veh_passenger"/>
    <trip id="veh86" depart="194.56" departLane="best" from="-243808884#2" to="725918952#0" type="veh_passenger"/>
    <trip id="veh87" depart="196.82" departLane="best" from="-174183905#1" to="-29989812#0" type="veh_passenger"/>
    <trip id="veh88" depart="199.08" departLane="best" from="234829035" to="243809611#1" type="veh_passenger"/>
    <trip id="veh89" depart="201.35" departLane="best" from="-506297706#0" to="-234827666#3" type="veh_passenger"/>
    <trip id="veh90" depart="203.61" departLane="best" from="60892327" to="-506297706#2" type="veh_passenger"/>
    <trip id="veh92" depart="208.13" departLane="best" from="174124191#0" to="60892358" type="veh_passenger"/>
    <trip id="veh93" depart="210.40" departLane="best" from="-506297706#4" to="-60892348#0" type="veh_passenger"/>
    <trip id="veh94" depart="212.66" departLane="best" from="29989867#5" to="-576073396#2" type="veh_passenger"/>
    <trip id="veh95" depart="214.92" departLane="best" from="-590843153#0" to="460241195#2" type="veh_passenger"/>
    <trip id="veh96" depart="217.18" departLane="best" from="728815446" to="782006659" type="veh_passenger"/>
    <trip id="veh97" depart="219.44" departLane="best" from="-174183877#1" to="-422253680#3" type="veh_passenger"/>
    <trip id="veh98" depart="221.71" departLane="best" from="-576073381#2" to="60892356#2" type="veh_passenger"/>
    <trip id="veh99" depart="223.97" departLane="best" from="60892323#1" to="60892323#4" type="veh_passenger"/>
    <trip id="veh100" depart="226.23" departLane="best" from="-60892339" to="-243808878" type="veh_passenger"/>
    <trip id="veh101" depart="228.49" departLane="best" from="578964735#0" to="321545025#3" type="veh_passenger"/>
    <trip id="veh102" depart="230.76" departLane="best" from="243803404#0" to="726172850" type="veh_passenger"/>
    <trip id="veh103" depart="233.02" departLane="best" from="243809611#2" to="-174124168#12" type="veh_passenger"/>
    <trip id="veh105" depart="237.54" departLane="best" from="-243805329#0" to="-234827666#0" type="veh_passenger"/>
    <trip id="veh108" depart="244.33" departLane="best" from="422952708" to="-321545025#0" type="veh_passenger"/>
    <trip id="veh109" depart="246.59" departLane="best" from="243808879" to="-576073345" type="veh_passenger"/>
    <trip id="veh110" depart="248.86" departLane="best" from="174124168#5" to="60892339" type="veh_passenger"/>
    <trip id="veh111" depart="251.12" departLane="best" from="-1108613228" to="460879330" type="veh_passenger"/>
    <trip id="veh112" depart="253.38" departLane="best" from="243808883#0" to="-576073343" type="veh_passenger"/>
    <trip id="veh113" depart="255.64" departLane="best" from="460242019#5" to="174124191#1" type="veh_passenger"/>
    <trip id="veh114" depart="257.90" departLane="best" from="-725941602#0" to="-174124168#3" type="veh_passenger"/>
    <trip id="veh115" depart="260.17" departLane="best" from="-174183877#4" to="60892326#3" type="veh_passenger"/>
    <trip id="veh116" depart="262.43" departLane="best" from="60892338#0" to="174124190#0" type="veh_passenger"/>
    <trip id="veh117" depart="264.69" departLane="best" from="578964735#0" to="174184031#3" type="veh_passenger"/>
    <trip id="veh118" depart="266.95" departLane="best" from="-243808878" to="-243803403#10" type="veh_passenger"/>
    <trip id="veh119" depart="269.22" departLane="best" from="-590843149#1" to="60892338#3" type="veh_passenger"/>
    <trip id="veh120" depart="271.48" departLane="best" from="-576073335" to="-174184459#0" type="veh_passenger"/>
    <trip id="veh121" depart="273.74" departLane="best" from="576073386#2" to="60892326#4" type="veh_passenger"/>
    <trip id="veh123" depart="278.27" departLane="best" from="-243808883#2" to="60892355#4" type="veh_passenger"/>
    <trip id="veh124" depart="280.53" departLane="best" from="590843157#0" to="726160116#3" type="veh_passenger"/>
    <trip id="veh125" depart="282.79" departLane="best" from="576073400#0" to="60892326#1" type="veh_passenger"/>
    <trip id="veh126" depart="285.05" departLane="best" from="-174124168#9" to="422253682#4" type="veh_passenger"/>
    <trip id="veh127" depart="287.31" departLane="best" from="-60892321#1" to="60892355#4" type="veh_passenger"/>
    <trip id="veh128" depart="289.58" departLane="best" from="576073398#0" to="592439456" type="veh_passenger"/>
    <trip id="veh129" depart="291.84" departLane="best" from="576073400#0" to="-576073357" type="veh_passenger"/>
    <trip id="veh130" depart="294.10" departLane="best" from="576073388" to="-174184459#1" type="veh_passenger"/>
    <trip id="veh131" depart="296.36" departLane="best" from="60892321#0" to="590843156#1" type="veh_passenger"/>
    <trip id="veh132" depart="298.63" departLane="best" from="-422253682#2" to="576073394#1" type="veh_passenger"/>
    <trip id="veh133" depart="300.89" departLane="best" from="146668039#0" to="-576073398#0" type="veh_passenger"/>
    <trip id="veh134" depart="303.15" departLane="best" from="576073395#0" to="-422253682#4" type="veh_passenger"/>
    <trip id="veh135" depart="305.41" departLane="best" from="-174124168#8" to="-29989867#2" type="veh_passenger"/>
    <trip id="veh136" depart="307.68" departLane="best" from="-60892313#0" to="592439456" type="veh_passenger"/>
    <trip id="veh138" depart="312.20" departLane="best" from="243808884#1" to="-60892350#0" type="veh_passenger"/>
    <trip id="veh139" depart="314.46" departLane="best" from="725928446#1" to="174124178#4" type="veh_passenger"/>
    <trip id="veh142" depart="321.25" departLane="best" from="-174184419#4" to="-60892363#2" type="veh_passenger"/>
    <trip id="veh143" depart="323.51" departLane="best" from="460241214#0" to="-576073401#0" type="veh_passenger"/>
    <trip id="veh144" depart="325.77" departLane="best" from="243803403#15" to="174124168#13" type="veh_passenger"/>
    <trip id="veh145" depart="328.04" departLane="best" from="-60892351#3" to="174183924#2" type="veh_passenger"/>
    <trip id="veh147" depart="332.56" departLane="best" from="-1037941157#1" to="60892351#5" type="veh_passenger"/>
    <trip id="veh148" depart="334.82" departLane="best" from="174183822#3" to="422253679" type="veh_passenger"/>
    <trip id="veh149" depart="337.09" departLane="best" from="460242019#5" to="243809609#0" type="veh_passenger"/>
    <trip id="veh150" depart="339.35" departLane="best" from="-60892338#4" to="-174183877#0" type="veh_passenger"/>
    <trip id="veh151" depart="341.61" departLane="best" from="29989812#2" to="-590843148#1" type="veh_passenger"/>
    <trip id="veh152" depart="343.87" departLane="best" from="422952708" to="-576073396#2" type="veh_passenger"/>
    <trip id="veh153" depart="346.13" departLane="best" from="-590843150#0" to="-60892351#3" type="veh_passenger"/>
    <trip id="veh155" depart="350.66" departLane="best" from="-243803403#2" to="-60892356#0" type="veh_passenger"/>
    <trip id="veh156" depart="352.92" departLane="best" from="60892355#0" to="243809611#3" type="veh_passenger"/>
    <trip id="veh157" depart="355.18" departLane="best" from="60892338#0" to="174184459#4" type="veh_passenger"/>
    <trip id="veh158" depart="357.45" departLane="best" from="-576073418" to="174124190#2" type="veh_passenger"/>
    <trip id="veh159" depart="359.71" departLane="best" from="-726172850" to="-422253680#4" type="veh_passenger"/>
    <trip id="veh160" depart="361.97" departLane="best" from="174124157#1" to="60892338#4" type="veh_passenger"/>
    <trip id="veh161" depart="364.23" departLane="best" from="-174184031#0" to="174124168#4" type="veh_passenger"/>
    <trip id="veh162" depart="366.50" departLane="best" from="576073402#0" to="460241195#2" type="veh_passenger"/>
    <trip id="veh163" depart="368.76" departLane="best" from="29989867#7" to="-422253682#1" type="veh_passenger"/>
    <trip id="veh165" depart="373.28" departLane="best" from="-515366120#0" to="174117431" type="veh_passenger"/>
    <trip id="veh166" depart="375.55" departLane="best" from="590843150#0" to="-174183877#1" type="veh_passenger"/>
    <trip id="veh168" depart="380.07" departLane="best" from="243809611#4" to="-174124168#1" type="veh_passenger"/>
    <trip id="veh169" depart="382.33" departLane="best" from="506297707#0" to="460879329" type="veh_passenger"/>
    <trip id="veh172" depart="389.12" departLane="best" from="174124190#0" to="-174183603#0" type="veh_passenger"/>
    <trip id="veh173" depart="391.38" departLane="best" from="-576073335" to="590843150#3" type="veh_passenger"/>
    <trip id="veh174" depart="393.64" departLane="best" from="146668039#0" to="576073383" type="veh_passenger"/>
    <trip id="veh175" depart="395.91" departLane="best" from="29989867#1" to="726172850" type="veh_passenger"/>
    <trip id="veh177" depart="400.43" departLane="best" from="60892330#0" to="174184459#1" type="veh_passenger"/>
    <trip id="veh178" depart="402.69" departLane="best" from="422952708" to="174124168#0" type="veh_passenger"/>
    <trip id="veh179" depart="404.96" departLane="best" from="60892331#2" to="460241190#1" type="veh_passenger"/>
    <trip id="veh180" depart="407.22" departLane="best" from="174124158#0" to="-576073336" type="veh_passenger"/>
    <trip id="veh181" depart="409.48" departLane="best" from="-515366120#2" to="243805329#2" type="veh_passenger"/>
    <trip id="veh183" depart="414.00" departLane="best" from="243808876#0" to="-576073383" type="veh_passenger"/>
    <trip id="veh184" depart="416.27" departLane="best" from="-174183905#1" to="-576073386#3" type="veh_passenger"/>
    <trip id="veh185" depart="418.53" departLane="best" from="174183877#0" to="-243805329#0" type="veh_passenger"/>
    <trip id="veh186" depart="420.79" departLane="best" from="-460241214#4" to="29989867#1" type="veh_passenger"/>
    <trip id="veh187" depart="423.05" departLane="best" from="422253682#5" to="-174183822#2" type="veh_passenger"/>
    <trip id="veh189" depart="427.58" departLane="best" from="-725918952#0" to="60892339" type="veh_passenger"/>
    <trip id="veh190" depart="429.84" departLane="best" from="174184459#4" to="29989867#3" type="veh_passenger"/>
    <trip id="veh191" depart="432.10" departLane="best" from="590843153#0" to="460242019#3" type="veh_passenger"/>
    <trip id="veh192" depart="434.37" departLane="best" from="-60892349#1" to="-174124168#1" type="veh_passenger"/>
    <trip id="veh193" depart="436.63" departLane="best" from="-60892330#2" to="460241195#2" type="veh_passenger"/>
    <trip id="veh197" depart="445.68" departLane="best" from="-726160116#3" to="-174124183#0" type="veh_passenger"/>
    <trip id="veh198" depart="447.94" departLane="best" from="-60892322#3" to="243809613" type="veh_passenger"/>
    <trip id="veh200" depart="452.46" departLane="best" from="174124147#6" to="-243803403#10" type="veh_passenger"/>
    <trip id="veh201" depart="454.73" departLane="best" from="243808875#2" to="-174124178#4" type="veh_passenger"/>
    <trip id="veh202" depart="456.99" departLane="best" from="-60892356#2" to="174183822#2" type="veh_passenger"/>
    <trip id="veh203" depart="459.25" departLane="best" from="-174124171#1" to="243808874#2" type="veh_passenger"/>
    <trip id="veh204" depart="461.51" departLane="best" from="-174124184#3" to="-60892331#2" type="veh_passenger"/>
    <trip id="veh205" depart="463.78" departLane="best" from="-422253680#6" to="-578954743#1" type="veh_passenger"/>
    <trip id="veh206" depart="466.04" departLane="best" from="506297707#1" to="576073418" type="veh_passenger"/>
    <trip id="veh207" depart="468.30" departLane="best" from="-576073342" to="-174184031#2" type="veh_passenger"/>
    <trip id="veh208" depart="470.56" departLane="best" from="-174124168#3" to="174124183#3" type="veh_passenger"/>
    <trip id="veh209" depart="472.82" departLane="best" from="728815447" to="-590843157#3" type="veh_passenger"/>
    <trip id="veh210" depart="475.09" departLane="best" from="243809609#1" to="515362686#0" type="veh_passenger"/>
    <trip id="veh211" depart="477.35" departLane="best" from="243809610#1" to="460241195#2" type="veh_passenger"/>
    <trip id="veh212" depart="479.61" departLane="best" from="-174124168#4" to="-243808876#0" type="veh_passenger"/>
    <trip id="veh213" depart="481.87" departLane="best" from="-243803403#14" to="243809608#1" type="veh_passenger"/>
    <trip id="veh214" depart="484.14" departLane="best" from="174184214#5" to="-422253681#1" type="veh_passenger"/>
    <trip id="veh215" depart="486.40" departLane="best" from="422253681#6" to="460242019#4" type="veh_passenger"/>
    <trip id="veh217" depart="490.92" departLane="best" from="506297706#3" to="-234827666#0" type="veh_passenger"/>
    <trip id="veh220" depart="497.71" departLane="best" from="422952708" to="-174183924#0" type="veh_passenger"/>
    <trip id="veh221" depart="499.97" departLane="best" from="422253680#3" to="243803403#14" type="veh_passenger"/>
    <trip id="veh222" depart="502.23" departLane="best" from="590843150#1" to="174184224#3" type="veh_passenger"/>
    <trip id="veh223" depart="504.50" departLane="best" from="576073386#5" to="-590843157#0" type="veh_passenger"/>
    <trip id="veh224" depart="506.76" departLane="best" from="-725941602#1" to="-60892326#4" type="veh_passenger"/>
    <trip id="veh225" depart="509.02" departLane="best" from="174124183#0" to="-590843153#2" type="veh_passenger"/>
    <trip id="veh226" depart="511.28" departLane="best" from="590843150#0" to="576073396#3" type="veh_passenger"/>
    <trip id="veh228" depart="515.81" departLane="best" from="460241214#6" to="725928446#0" type="veh_passenger"/>
    <trip id="veh229" depart="518.07" departLane="best" from="174183822#3" to="174124147#4" type="veh_passenger"/>
    <trip id="veh230" depart="520.33" departLane="best" from="-726160116#3" to="422253681#6" type="veh_passenger"/>
    <trip id="veh231" depart="522.60" departLane="best" from="578964733#0" to="-174184214#0" type="veh_passenger"/>
    <trip id="veh232" depart="524.86" departLane="best" from="60892323#2" to="-506297706#0" type="veh_passenger"/>
    <trip id="veh234" depart="529.38" departLane="best" from="-60892349#0" to="-174124183#0" type="veh_passenger"/>
    <trip id="veh235" depart="531.65" departLane="best" from="-422253680#6" to="576073381#2" type="veh_passenger"/>
    <trip id="veh236" depart="533.91" departLane="best" from="422253682#0" to="-576073384#0" type="veh_passenger"/>
    <trip id="veh238" depart="538.43" departLane="best" from="-174184031#1" to="422253680#0" type="veh_passenger"/>
    <trip id="veh239" depart="540.69" departLane="best" from="174124168#5" to="460241214#3" type="veh_passenger"/>
    <trip id="veh240" depart="542.96" departLane="best" from="422253680#3" to="243808875#5" type="veh_passenger"/>
    <trip id="veh241" depart="545.22" departLane="best" from="174124168#8" to="576073381#1" type="veh_passenger"/>
    <trip id="veh242" depart="547.48" departLane="best" from="-174184214#1" to="-422253681#6" type="veh_passenger"/>
    <trip id="veh243" depart="549.74" departLane="best" from="422253680#4" to="-576073398#1" type="veh_passenger"/>
    <trip id="veh244" depart="552.01" departLane="best" from="174184459#2" to="1108613228" type="veh_passenger"/>
    <trip id="veh245" depart="554.27" departLane="best" from="174183603#5" to="-60892361#1" type="veh_passenger"/>
    <trip id="veh247" depart="558.79" departLane="best" from="-576073341" to="-234829035" type="veh_passenger"/>
    <trip id="veh248" depart="561.06" departLane="best" from="-29989867#6" to="-234827666#3" type="veh_passenger"/>
    <trip id="veh249" depart="563.32" departLane="best" from="174183822#1" to="460241214#9" type="veh_passenger"/>
    <trip id="veh250" depart="565.58" departLane="best" from="174124168#10" to="422253680#6" type="veh_passenger"/>
    <trip id="veh251" depart="567.84" departLane="best" from="725918952#1" to="174124171#2" type="veh_passenger"/>
    <trip id="veh253" depart="572.37" departLane="best" from="-29989867#7" to="-422253682#4" type="veh_passenger"/>
    <trip id="veh255" depart="576.89" departLane="best" from="174183769" to="-576073381#1" type="veh_passenger"/>
    <trip id="veh256" depart="579.15" departLane="best" from="422253681#4" to="-243803403#1" type="veh_passenger"/>
    <trip id="veh257" depart="581.42" departLane="best" from="592439456" to="174124147#7" type="veh_passenger"/>
    <trip id="veh258" depart="583.68" departLane="best" from="60892321#0" to="174183905#1" type="veh_passenger"/>
    <trip id="veh260" depart="588.20" departLane="best" from="-29989812#2" to="-174183603#0" type="veh_passenger"/>
    <trip id="veh261" depart="590.47" departLane="best" from="576073402#1" to="-60892350#0" type="veh_passenger"/>
    <trip id="veh262" depart="592.73" departLane="best" from="-174183877#3" to="243803403#3" type="veh_passenger"/>
    <trip id="veh263" depart="594.99" departLane="best" from="174184214#3" to="-576073398#0" type="veh_passenger"/>
    <trip id="veh264" depart="597.25" departLane="best" from="726172846" to="-234827666#2" type="veh_passenger"/>
    <trip id="veh265" depart="599.51" departLane="best" from="576073394#2" to="-422253682#2" type="veh_passenger"/>
    <trip id="veh266" depart="601.78" departLane="best" from="174124190#4" to="-725918952#3" type="veh_passenger"/>
    <trip id="veh267" depart="604.04" departLane="best" from="-726172850" to="590843157#0" type="veh_passenger"/>
    <trip id="veh268" depart="606.30" departLane="best" from="726160128" to="-576073398#0" type="veh_passenger"/>
    <trip id="veh271" depart="613.09" departLane="best" from="29989812#0" to="-243808876#3" type="veh_passenger"/>
    <trip id="veh272" depart="615.35" departLane="best" from="234827666#3" to="-576073394#2" type="veh_passenger"/>
    <trip id="veh274" depart="619.88" departLane="best" from="422253682#2" to="-725928446#2" type="veh_passenger"/>
    <trip id="veh275" depart="622.14" departLane="best" from="576073388" to="243803403#12" type="veh_passenger"/>
    <trip id="veh276" depart="624.40" departLane="best" from="29989812#0" to="60892356#2" type="veh_passenger"/>
    <trip id="veh277" depart="626.66" departLane="best" from="-725928446#1" to="174124184#3" type="veh_passenger"/>
    <trip id="veh278" depart="628.92" departLane="best" from="243809608#1" to="60892342" type="veh_passenger"/>
    <trip id="veh279" depart="631.19" departLane="best" from="576073418" to="-174183877#0" type="veh_passenger"/>
    <trip id="veh280" depart="633.45" departLane="best" from="-576073394#3" to="-243803403#0" type="veh_passenger"/>
    <trip id="veh281" depart="635.71" departLane="best" from="422253680#0" to="29989867#7" type="veh_passenger"/>
    <trip id="veh282" depart="637.97" departLane="best" from="60892355#2" to="174124158#3" type="veh_passenger"/>
    <trip id="veh283" depart="640.24" departLane="best" from="174124171#1" to="-174184031#1" type="veh_passenger"/>
    <trip id="veh285" depart="644.76" departLane="best" from="578964735#0" to="174183924#0" type="veh_passenger"/>
    <trip id="veh286" depart="647.02" departLane="best" from="29989867#6" to="-576073357" type="veh_passenger"/>
    <trip id="veh287" depart="649.29" departLane="best" from="-174124178#2" to="460241214#1" type="veh_passenger"/>
    <trip id="veh288" depart="651.55" departLane="best" from="174124153" to="243808880#0" type="veh_passenger"/>
    <trip id="veh289" depart="653.81" departLane="best" from="60892347" to="-243809611#4" type="veh_passenger"/>
    <trip id="veh290" depart="656.07" departLane="best" from="174184459#6" to="243803404#1" type="veh_passenger"/>
    <trip id="veh291" depart="658.33" departLane="best" from="174124168#9" to="-174184214#5" type="veh_passenger"/>
    <trip id="veh292" depart="660.60" departLane="best" from="-60892326#5" to="-590843150#0" type="veh_passenger"/>
    <trip id="veh293" depart="662.86" departLane="best" from="-60892320" to="29989867#1" type="veh_passenger"/>
    <trip id="veh295" depart="667.38" departLane="best" from="576073400#0" to="174124190#4" type="veh_passenger"/>
    <trip id="veh296" depart="669.65" departLane="best" from="-590843157#0" to="726160112" type="veh_passenger"/>
    <trip id="veh298" depart="674.17" departLane="best" from="726160116#1" to="243808884#1" type="veh_passenger"/>
    <trip id="veh299" depart="676.43" departLane="best" from="174183877#0" to="-60892355#0" type="veh_passenger"/>
    <trip id="veh300" depart="678.70" departLane="best" from="-29989867#1" to="-60892323#1" type="veh_passenger"/>
    <trip id="veh301" depart="680.96" departLane="best" from="515366120#3" to="-321545025#0" type="veh_passenger"/>
    <trip id="veh302" depart="683.22" departLane="best" from="174183924#2" to="60892355#1" type="veh_passenger"/>
    <trip id="veh303" depart="685.48" departLane="best" from="-726172846" to="29989867#5" type="veh_passenger"/>
    <trip id="veh304" depart="687.75" departLane="best" from="-234829035" to="726160116#1" type="veh_passenger"/>
    <trip id="veh305" depart="690.01" departLane="best" from="-243808884#3" to="174124191#0" type="veh_passenger"/>
    <trip id="veh306" depart="692.27" departLane="best" from="726171222" to="60892345" type="veh_passenger"/>
    <trip id="veh307" depart="694.53" departLane="best" from="146668039#3" to="-234827666#1" type="veh_passenger"/>
    <trip id="veh308" depart="696.79" departLane="best" from="578964735#0" to="174124158#1" type="veh_passenger"/>
    <trip id="veh309" depart="699.06" departLane="best" from="422952708" to="174124168#13" type="veh_passenger"/>
    <trip id="veh310" depart="701.32" departLane="best" from="-576073385#1" to="578964732" type="veh_passenger"/>