<?xml version="1.0" encoding="UTF-8"?>
<!-- generated on 2023-02-12 12:30:38.651369 by $Id$
  options: 
-->
<routes xmlns:xsi="http://www.w3.org/2001/XMLSchema-instance" xsi:noNamespaceSchemaLocation="http://sumo.dlr.de/xsd/routes_file.xsd">
    <vType id="ped_pedestrian" vClass="pedestrian"/>
    <person id="ped0" depart="0.00" type="ped_pedestrian">
        <walk from="243803403#15" to="-174124168#7"/>
    </person>
    <person id="ped1" depart="2.93" type="ped_pedestrian">
        <walk from="-576073381#0" to="-422253681#4"/>
    </person>
    <person id="ped2" depart="5.86" type="ped_pedestrian">
        <walk from="422253681#5" to="243808884#3"/>
    </person>
    <person id="ped3" depart="8.80" type="ped_pedestrian">
        <walk from="60892327" to="-174183924#3"/>
    </person>
    <person id="ped4" depart="11.73" type="ped_pedestrian">
        <walk from="-60892362#1" to="-174124171#1"/>
    </person>
    <person id="ped5" depart="14.66" type="ped_pedestrian">
        <walk from="-422253680#6" to="174124148#2"/>
    </person>
    <person id="ped6" depart="17.59" type="ped_pedestrian">
        <walk from="-174124168#8" to="-29989867#4"/>
    </person>
    <person id="ped7" depart="20.53" type="ped_pedestrian">
        <walk from="243805329#1" to="174124178#4"/>
    </person>
    <person id="ped8" depart="23.46" type="ped_pedestrian">
        <walk from="-422253681#0" to="174183924#3"/>
    </person>
    <person id="ped9" depart="26.39" type="ped_pedestrian">
        <walk from="576073395#1" to="-1037941156"/>
    </person>
    <person id="ped10" depart="29.32" type="ped_pedestrian">
        <walk from="576073394#1" to="29989812#1"/>
    </person>
    <person id="ped11" depart="32.25" type="ped_pedestrian">
        <walk from="-590843156#1" to="-243808876#0"/>
    </person>
    <person id="ped12" depart="35.19" type="ped_pedestrian">
        <walk from="60892379#0" to="-590843153#3"/>
    </person>
    <person id="ped13" depart="38.12" type="ped_pedestrian">
        <walk from="-174184031#3" to="-174184214#0"/>
    </person>
    <person id="ped14" depart="41.05" type="ped_pedestrian">
        <walk from="590843150#1" to="174184214#4"/>
    </person>
    <person id="ped15" depart="43.98" type="ped_pedestrian">
        <walk from="576073394#2" to="422253680#5"/>
    </person>
    <person id="ped16" depart="46.91" type="ped_pedestrian">
        <walk from="174124177#1" to="725941602#0"/>
    </person>
    <person id="ped17" depart="49.85" type="ped_pedestrian">
        <walk from="-60892331#2" to="174124184#0"/>
    </person>
    <person id="ped18" depart="52.78" type="ped_pedestrian">
        <walk from="576073419" to="174184419#4"/>
    </person>
    <person id="ped19" depart="55.71" type="ped_pedestrian">
        <walk from="590843156#2" to="174183822#1"/>
    </person>
    <person id="ped20" depart="58.64" type="ped_pedestrian">
        <walk from="29989867#3" to="-174124183#2"/>
    </person>
    <person id="ped21" depart="61.58" type="ped_pedestrian">
        <walk from="-422253682#0" to="-576073386#2"/>
    </person>
    <person id="ped22" depart="64.51" type="ped_pedestrian">
        <walk from="-174183877#1" to="-422253682#4"/>
    </person>
    <person id="ped23" depart="67.44" type="ped_pedestrian">
        <walk from="-174184214#4" to="-576073381#2"/>
    </person>
    <person id="ped24" depart="70.37" type="ped_pedestrian">
        <walk from="243803403#12" to="-60892326#1"/>
    </person>
    <person id="ped25" depart="73.30" type="ped_pedestrian">
        <walk from="-60892327" to="-36891856#2"/>
    </person>
    <person id="ped26" depart="76.24" type="ped_pedestrian">
        <walk from="-576073344" to="60892355#4"/>
    </person>
    <person id="ped27" depart="79.17" type="ped_pedestrian">
        <walk from="243805329#0" to="174184224#0"/>
    </person>
    <person id="ped28" depart="82.10" type="ped_pedestrian">
        <walk from="-243808880#2" to="-60892331#3"/>
    </person>
    <person id="ped29" depart="85.03" type="ped_pedestrian">
        <walk from="726172849" to="243803403#15"/>
    </person>
    <person id="ped30" depart="87.97" type="ped_pedestrian">
        <walk from="174124190#0" to="243809609#0"/>
    </person>
    <person id="ped31" depart="90.90" type="ped_pedestrian">
        <walk from="590843148#1" to="576073340"/>
    </person>
    <person id="ped32" depart="93.83" type="ped_pedestrian">
        <walk from="-422253682#1" to="-174124177#0"/>
    </person>
    <person id="ped33" depart="96.76" type="ped_pedestrian">
        <walk from="-576073402#4" to="-576073344"/>
    </person>
    <person id="ped34" depart="99.69" type="ped_pedestrian">
        <walk from="-422253678#0" to="60892361#0"/>
    </person>
    <person id="ped35" depart="102.63" type="ped_pedestrian">
        <walk from="60892322#2" to="-576073402#3"/>
    </person>
    <person id="ped36" depart="105.56" type="ped_pedestrian">
        <walk from="243808874#1" to="-60892348#1"/>
    </person>
    <person id="ped37" depart="108.49" type="ped_pedestrian">
        <walk from="60892345" to="-726172851"/>
    </person>
    <person id="ped38" depart="111.42" type="ped_pedestrian">
        <walk from="-576073342" to="-506297706#0"/>
    </person>
    <person id="ped39" depart="114.35" type="ped_pedestrian">
        <walk from="174124190#4" to="-576073336"/>
    </person>
    <person id="ped40" depart="117.29" type="ped_pedestrian">
        <walk from="174183877#4" to="60892331#1"/>
    </person>
    <person id="ped41" depart="120.22" type="ped_pedestrian">
        <walk from="-60892350#1" to="-422253680#6"/>
    </person>
    <person id="ped42" depart="123.15" type="ped_pedestrian">
        <walk from="738384121#1" to="174124157#2"/>
    </person>
    <person id="ped43" depart="126.08" type="ped_pedestrian">
        <walk from="-174184031#2" to="-174124183#4"/>
    </person>
    <person id="ped44" depart="129.02" type="ped_pedestrian">
        <walk from="-174184224#2" to="234827666#0"/>
    </person>
    <person id="ped45" depart="131.95" type="ped_pedestrian">
        <walk from="576073384#3" to="-60892362#1"/>
    </person>
    <person id="ped46" depart="134.88" type="ped_pedestrian">
        <walk from="-174183603#0" to="-60892335"/>
    </person>
    <person id="ped47" depart="137.81" type="ped_pedestrian">
        <walk from="738384121#0" to="174124168#7"/>
    </person>
    <person id="ped48" depart="140.74" type="ped_pedestrian">
        <walk from="725928446#1" to="590843156#1"/>
    </person>
    <person id="ped49" depart="143.68" type="ped_pedestrian">
        <walk from="-1058515627" to="422253677"/>
    </person>
    <person id="ped50" depart="146.61" type="ped_pedestrian">
        <walk from="243809608#0" to="174124177#1"/>
    </person>
    <person id="ped51" depart="149.54" type="ped_pedestrian">
        <walk from="-576073344" to="243803403#2"/>
    </person>
    <person id="ped52" depart="152.47" type="ped_pedestrian">
        <walk from="-174184419#1" to="-60892381#0"/>
    </person>
    <person id="ped53" depart="155.41" type="ped_pedestrian">
        <walk from="-726172846" to="60892364#1"/>
    </person>
    <person id="ped54" depart="158.34" type="ped_pedestrian">
        <walk from="60892322#2" to="-576073336"/>
    </person>
    <person id="ped55" depart="161.27" type="ped_pedestrian">
        <walk from="174124147#5" to="-243809609#0"/>
    </person>
    <person id="ped56" depart="164.20" type="ped_pedestrian">
        <walk from="60892343" to="60892320"/>
    </person>
    <person id="ped57" depart="167.13" type="ped_pedestrian">
        <walk from="-576073394#3" to="243803403#14"/>
    </person>
    <person id="ped58" depart="170.07" type="ped_pedestrian">
        <walk from="174184224#0" to="-243808875#2"/>
    </person>
    <person id="ped59" depart="173.00" type="ped_pedestrian">
        <walk from="506297706#4" to="174124177#4"/>
    </person>
    <person id="ped60" depart="175.93" type="ped_pedestrian">
        <walk from="576073342" to="174124168#9"/>
    </person>
    <person id="ped61" depart="178.86" type="ped_pedestrian">
        <walk from="-1037941154#0" to="-590843149#0"/>
    </person>
    <person id="ped62" depart="181.79" type="ped_pedestrian">
        <walk from="-174124168#13" to="60892351#3"/>
    </person>
    <person id="ped63" depart="184.73" type="ped_pedestrian">
        <walk from="60892322#4" to="578964732"/>
    </person>
    <person id="ped64" depart="187.66" type="ped_pedestrian">
        <walk from="-576073400#0" to="-174124190#4"/>
    </person>
    <person id="ped65" depart="190.59" type="ped_pedestrian">
        <walk from="60892322#4" to="60892362#0"/>
    </person>
    <person id="ped66" depart="193.52" type="ped_pedestrian">
        <walk from="-174183924#2" to="1037941162#2"/>
    </person>
    <person id="ped67" depart="196.46" type="ped_pedestrian">
        <walk from="-174183603#5" to="506297706#2"/>
    </person>
    <person id="ped68" depart="199.39" type="ped_pedestrian">
        <walk from="506297707#1" to="-243803403#0"/>
    </person>
    <person id="ped69" depart="202.32" type="ped_pedestrian">
        <walk from="1037941159" to="174124183#3"/>
    </person>
    <person id="ped70" depart="205.25" type="ped_pedestrian">
        <walk from="-576073342" to="60892321#1"/>
    </person>
    <person id="ped71" depart="208.18" type="ped_pedestrian">
        <walk from="-60892363#0" to="-422253678#0"/>
    </person>
    <person id="ped72" depart="211.12" type="ped_pedestrian">
        <walk from="174124177#4" to="422253680#6"/>
    </person>
    <person id="ped73" depart="214.05" type="ped_pedestrian">
        <walk from="-29989867#6" to="-576073402#1"/>
    </person>
    <person id="ped74" depart="216.98" type="ped_pedestrian">
        <walk from="738383158" to="243805329#1"/>
    </person>
    <person id="ped75" depart="219.91" type="ped_pedestrian">
        <walk from="-725918952#0" to="174124165#1"/>
    </person>
    <person id="ped76" depart="222.85" type="ped_pedestrian">
        <walk from="-174184459#4" to="-422253681#5"/>
    </person>
    <person id="ped77" depart="225.78" type="ped_pedestrian">
        <walk from="-590843153#4" to="174183924#2"/>
    </person>
    <person id="ped78" depart="228.71" type="ped_pedestrian">
        <walk from="-422253682#2" to="-422253681#0"/>
    </person>
    <person id="ped79" depart="231.64" type="ped_pedestrian">
        <walk from="-174183758" to="234827666#3"/>
    </person>
    <person id="ped80" depart="234.57" type="ped_pedestrian">
        <walk from="-422253682#1" to="60892338#0"/>
    </person>
    <person id="ped81" depart="237.51" type="ped_pedestrian">
        <walk from="590843156#0" to="-174183758"/>
    </person>
    <person id="ped82" depart="240.44" type="ped_pedestrian">
        <walk from="-460241214#1" to="243808880#2"/>
    </person>
    <person id="ped83" depart="243.37" type="ped_pedestrian">
        <walk from="-422253680#1" to="-243803403#13"/>
    </person>
    <person id="ped84" depart="246.30" type="ped_pedestrian">
        <walk from="60892355#3" to="174183603#5"/>
    </person>
    <person id="ped85" depart="249.23" type="ped_pedestrian">
        <walk from="1037941157#2" to="576073381#2"/>
    </person>
    <person id="ped86" depart="252.17" type="ped_pedestrian">
        <walk from="576073394#3" to="-29989812#0"/>
    </person>
    <person id="ped87" depart="255.10" type="ped_pedestrian">
        <walk from="-174184214#0" to="-60892379#2"/>
    </person>
    <person id="ped88" depart="258.03" type="ped_pedestrian">
        <walk from="-60892363#0" to="1037941154#3"/>
    </person>
    <person id="ped89" depart="260.96" type="ped_pedestrian">
        <walk from="422253680#5" to="243808883#3"/>
    </person>
    <person id="ped90" depart="263.90" type="ped_pedestrian">
        <walk from="726160129" to="-174184214#1"/>
    </person>
    <person id="ped91" depart="266.83" type="ped_pedestrian">
        <walk from="-60892351#1" to="-590843156#0"/>
    </person>
    <person id="ped92" depart="269.76" type="ped_pedestrian">
        <walk from="590843156#2" to="-506297706#2"/>
    </person>
    <person id="ped93" depart="272.69" type="ped_pedestrian">
        <walk from="-29989812#0" to="-726160116#1"/>
    </person>
    <person id="ped94" depart="275.62" type="ped_pedestrian">
        <walk from="-60892362#1" to="-576073383"/>
    </person>
    <person id="ped95" depart="278.56" type="ped_pedestrian">
        <walk from="-506297706#3" to="60892350#0"/>
    </person>
    <person id="ped96" depart="281.49" type="ped_pedestrian">
        <walk from="-725928446#1" to="590843156#2"/>
    </person>
    <person id="ped97" depart="284.42" type="ped_pedestrian">
        <walk from="174124183#3" to="-174124184#2"/>
    </person>
    <person id="ped98" depart="287.35" type="ped_pedestrian">
        <walk from="782006659" to="578964735#1"/>
    </person>
    <person id="ped99" depart="290.29" type="ped_pedestrian">
        <walk from="725918952#5" to="60892351#0"/>
    </person>
    <person id="ped100" depart="293.22" type="ped_pedestrian">
        <walk from="590843150#3" to="-243808883#2"/>
    </person>
    <person id="ped101" depart="296.15" type="ped_pedestrian">
        <walk from="1037941162#2" to="-422253680#0"/>
    </person>
    <person id="ped102" depart="299.08" type="ped_pedestrian">
        <walk from="-60892350#2" to="-174124191#0"/>
    </person>
    <person id="ped103" depart="302.01" type="ped_pedestrian">
        <walk from="-60892331#3" to="726171222"/>
    </person>
    <person id="ped104" depart="304.95" type="ped_pedestrian">
        <walk from="-576073342" to="576073381#2"/>
    </person>
    <person id="ped105" depart="307.88" type="ped_pedestrian">
        <walk from="-726172847" to="-60892363#0"/>
    </person>
    <person id="ped106" depart="310.81" type="ped_pedestrian">
        <walk from="60892379#0" to="738383158"/>
    </person>
    <person id="ped107" depart="313.74" type="ped_pedestrian">
        <walk from="174124184#3" to="36891973"/>
    </person>
    <person id="ped108" depart="316.67" type="ped_pedestrian">
        <walk from="-243808876#0" to="-576073394#1"/>
    </person>
    <person id="ped109" depart="319.61" type="ped_pedestrian">
        <walk from="725918952#5" to="174183822#3"/>
    </person>
    <person id="ped110" depart="322.54" type="ped_pedestrian">
        <walk from="174124178#1" to="422952708"/>
    </person>
    <person id="ped111" depart="325.47" type="ped_pedestrian">
        <walk from="-174124190#3" to="174183877#4"/>
    </person>
    <person id="ped112" depart="328.40" type="ped_pedestrian">
        <walk from="174124147#7" to="590843151#2"/>
    </person>
    <person id="ped113" depart="331.34" type="ped_pedestrian">
        <walk from="-243808876#2" to="60892381#1"/>
    </person>
    <person id="ped114" depart="334.27" type="ped_pedestrian">
        <walk from="-174183877#1" to="-243809611#2"/>
    </person>
    <person id="ped115" depart="337.20" type="ped_pedestrian">
        <walk from="174184031#3" to="243808884#2"/>
    </person>
    <person id="ped116" depart="340.13" type="ped_pedestrian">
        <walk from="-422253682#6" to="-174184459#3"/>
    </person>
    <person id="ped117" depart="343.06" type="ped_pedestrian">
        <walk from="60892326#5" to="-506297706#0"/>
    </person>
    <person id="ped118" depart="346.00" type="ped_pedestrian">
        <walk from="174184031#3" to="174184459#0"/>
    </person>
    <person id="ped119" depart="348.93" type="ped_pedestrian">
        <walk from="-60892361#1" to="174183877#3"/>
    </person>
    <person id="ped120" depart="351.86" type="ped_pedestrian">
        <walk from="174124168#13" to="60892355#2"/>
    </person>
    <person id="ped121" depart="354.79" type="ped_pedestrian">
        <walk from="-321545025#0" to="36891856#0"/>
    </person>
    <person id="ped122" depart="357.73" type="ped_pedestrian">
        <walk from="-460241214#1" to="-60892349#0"/>
    </person>
    <person id="ped123" depart="360.66" type="ped_pedestrian">
        <walk from="243808883#2" to="-576073395#0"/>
    </person>
    <person id="ped124" depart="363.59" type="ped_pedestrian">
        <walk from="-576073418" to="460241214#1"/>
    </person>
    <person id="ped125" depart="366.52" type="ped_pedestrian">
        <walk from="-174183769" to="-726172850"/>
    </person>
    <person id="ped126" depart="369.45" type="ped_pedestrian">
        <walk from="738384122" to="738384121#0"/>
    </person>
    <person id="ped127" depart="372.39" type="ped_pedestrian">
        <walk from="-174183822#0" to="-422253680#0"/>
    </person>
    <person id="ped128" depart="375.32" type="ped_pedestrian">
        <walk from="-576073342" to="60892355#1"/>
    </person>
    <person id="ped129" depart="378.25" type="ped_pedestrian">
        <walk from="60892323#1" to="60892323#0"/>
    </person>
    <person id="ped130" depart="381.18" type="ped_pedestrian">
        <walk from="-60892326#5" to="-243808876#2"/>
    </person>
    <person id="ped131" depart="384.11" type="ped_pedestrian">
        <walk from="578964733#1" to="29989867#2"/>
    </person>
    <person id="ped132" depart="387.05" type="ped_pedestrian">
        <walk from="174184224#2" to="726172847"/>
    </person>
    <person id="ped133" depart="389.98" type="ped_pedestrian">
        <walk from="243808874#0" to="-1037941157#0"/>
    </person>
    <person id="ped134" depart="392.91" type="ped_pedestrian">
        <walk from="576073399" to="-576073395#0"/>
    </person>
    <person id="ped135" depart="395.84" type="ped_pedestrian">
        <walk from="243808876#2" to="60892356#1"/>
    </person>
    <person id="ped136" depart="398.78" type="ped_pedestrian">
        <walk from="-243803403#14" to="-174184419#4"/>
    </person>
    <person id="ped137" depart="401.71" type="ped_pedestrian">
        <walk from="-174184224#0" to="174124184#1"/>
    </person>
    <person id="ped138" depart="404.64" type="ped_pedestrian">
        <walk from="-576073360" to="174184214#5"/>
    </person>
    <person id="ped139" depart="407.57" type="ped_pedestrian">
        <walk from="36891973" to="-30005909#0"/>
    </person>
    <person id="ped140" depart="410.50" type="ped_pedestrian">
        <walk from="243803403#1" to="-576073341"/>
    </person>
    <person id="ped141" depart="413.44" type="ped_pedestrian">
        <walk from="1037941162#4" to="60892338#0"/>
    </person>
    <person id="ped142" depart="416.37" type="ped_pedestrian">
        <walk from="590843150#0" to="-174184031#3"/>
    </person>
    <person id="ped143" depart="419.30" type="ped_pedestrian">
        <walk from="-60892363#0" to="-576073381#1"/>
    </person>
    <person id="ped144" depart="422.23" type="ped_pedestrian">
        <walk from="-1037941154#3" to="515362686#1"/>
    </person>
    <person id="ped145" depart="425.17" type="ped_pedestrian">
        <walk from="243803403#13" to="-576073335"/>
    </person>
    <person id="ped146" depart="428.10" type="ped_pedestrian">
        <walk from="422253682#2" to="174124184#0"/>
    </person>
    <person id="ped147" depart="431.03" type="ped_pedestrian">
        <walk from="-60892364#1" to="-1037941157#2"/>
    </person>
    <person id="ped148" depart="433.96" type="ped_pedestrian">
        <walk from="-174183822#2" to="60892323#3"/>
    </person>
    <person id="ped149" depart="436.89" type="ped_pedestrian">
        <walk from="60892336#1" to="174124178#4"/>
    </person>
    <person id="ped150" depart="439.83" type="ped_pedestrian">
        <walk from="578964735#0" to="174183877#1"/>
    </person>
    <person id="ped151" depart="442.76" type="ped_pedestrian">
        <walk from="-243808874#0" to="-234829035"/>
    </person>
    <person id="ped152" depart="445.69" type="ped_pedestrian">
        <walk from="-576073400#0" to="60892331#2"/>
    </person>
    <person id="ped153" depart="448.62" type="ped_pedestrian">
        <walk from="576073386#0" to="590843156#1"/>
    </person>
    <person id="ped154" depart="451.56" type="ped_pedestrian">
        <walk from="60892331#2" to="-422253677"/>
    </person>
    <person id="ped155" depart="454.49" type="ped_pedestrian">
        <walk from="-506297706#3" to="-174184214#5"/>
    </person>
    <person id="ped156" depart="457.42" type="ped_pedestrian">
        <walk from="576073346" to="60892323#4"/>
    </person>
    <person id="ped157" depart="460.35" type="ped_pedestrian">
        <walk from="-60892351#6" to="174184459#1"/>
    </person>
    <person id="ped158" depart="463.28" type="ped_pedestrian">
        <walk from="-243808875#3" to="60892351#5"/>
    </person>
    <person id="ped159" depart="466.22" type="ped_pedestrian">
        <walk from="590843157#2" to="726160112"/>
    </person>
    <person id="ped160" depart="469.15" type="ped_pedestrian">
        <walk from="576073396#1" to="60892323#2"/>
    </person>
    <person id="ped161" depart="472.08" type="ped_pedestrian">
        <walk from="-174124168#7" to="422253681#6"/>
    </person>
    <person id="ped162" depart="475.01" type="ped_pedestrian">
        <walk from="-590843151#2" to="60892351#6"/>
    </person>
    <person id="ped163" depart="477.94" type="ped_pedestrian">
        <walk from="576073386#5" to="590843157#1"/>
    </person>
    <person id="ped164" depart="480.88" type="ped_pedestrian">
        <walk from="576073396#1" to="-576073343"/>
    </person>
    <person id="ped165" depart="483.81" type="ped_pedestrian">
        <walk from="576073383" to="-174184224#1"/>
    </person>
    <person id="ped166" depart="486.74" type="ped_pedestrian">
        <walk from="60892321#0" to="590843153#4"/>
    </person>
    <person id="ped167" depart="489.67" type="ped_pedestrian">
        <walk from="-422253681#3" to="576073399"/>
    </person>
    <person id="ped168" depart="492.61" type="ped_pedestrian">
        <walk from="-738383158" to="-576073398#1"/>
    </person>
    <person id="ped169" depart="495.54" type="ped_pedestrian">
        <walk from="576073385#1" to="-422253682#0"/>
    </person>
    <person id="ped170" depart="498.47" type="ped_pedestrian">
        <walk from="-174124168#5" to="-29989812#3"/>
    </person>
    <person id="ped171" depart="501.40" type="ped_pedestrian">
        <walk from="-590843150#1" to="590843157#2"/>
    </person>
    <person id="ped172" depart="504.33" type="ped_pedestrian">
        <walk from="725918952#3" to="-576073383"/>
    </person>
    <person id="ped173" depart="507.27" type="ped_pedestrian">
        <walk from="243803403#3" to="-60892350#1"/>
    </person>
    <person id="ped174" depart="510.20" type="ped_pedestrian">
        <walk from="726160116#3" to="174124177#1"/>
    </person>
    <person id="ped175" depart="513.13" type="ped_pedestrian">
        <walk from="60892356#1" to="-174184419#4"/>
    </person>
    <person id="ped176" depart="516.06" type="ped_pedestrian">
        <walk from="725928446#0" to="-243809609#0"/>
    </person>
    <person id="ped177" depart="519.00" type="ped_pedestrian">
        <walk from="60892383" to="-576073342"/>
    </person>
    <person id="ped178" depart="521.93" type="ped_pedestrian">
        <walk from="-174184224#1" to="-60892381#0"/>
    </person>
    <person id="ped179" depart="524.86" type="ped_pedestrian">
        <walk from="422253680#4" to="-576073402#2"/>
    </person>
    <person id="ped180" depart="527.79" type="ped_pedestrian">
        <walk from="174184214#6" to="174124158#1"/>
    </person>
    <person id="ped181" depart="530.72" type="ped_pedestrian">
        <walk from="-60892338#0" to="174183822#1"/>
    </person>
    <person id="ped182" depart="533.66" type="ped_pedestrian">
        <walk from="-506297707#2" to="29989867#7"/>
    </person>
    <person id="ped183" depart="536.59" type="ped_pedestrian">
        <walk from="-1037941154#1" to="60892350#2"/>
    </person>
    <person id="ped184" depart="539.52" type="ped_pedestrian">
        <walk from="174124177#3" to="390666299"/>
    </person>
    <person id="ped185" depart="542.45" type="ped_pedestrian">
        <walk from="422253682#2" to="243808883#1"/>
    </person>
    <person id="ped186" depart="545.38" type="ped_pedestrian">
        <walk from="-60892326#0" to="-174183603#6"/>
    </person>
    <person id="ped187" depart="548.32" type="ped_pedestrian">
        <walk from="243808876#3" to="-590843151#0"/>
    </person>
    <person id="ped188" depart="551.25" type="ped_pedestrian">
        <walk from="-576073402#3" to="590843150#2"/>
    </person>
    <person id="ped189" depart="554.18" type="ped_pedestrian">
        <walk from="422253677" to="-576073395#0"/>
    </person>
    <person id="ped190" depart="557.11" type="ped_pedestrian">
        <walk from="-576073400#1" to="-60892355#1"/>
    </person>
    <person id="ped191" depart="560.05" type="ped_pedestrian">
        <walk from="-60892351#0" to="-576073394#0"/>
    </person>
    <person id="ped192" depart="562.98" type="ped_pedestrian">
        <walk from="-234829035" to="-60892362#0"/>
    </person>
    <person id="ped193" depart="565.91" type="ped_pedestrian">
        <walk from="60892356#2" to="243808885#0"/>
    </person>
    <person id="ped194" depart="568.84" type="ped_pedestrian">
        <walk from="60892336#0" to="174184419#2"/>
    </person>
    <person id="ped195" depart="571.77" type="ped_pedestrian">
        <walk from="-576073396#0" to="174124183#1"/>
    </person>
    <person id="ped196" depart="574.71" type="ped_pedestrian">
        <walk from="-1037941154#0" to="-576073385#1"/>
    </person>
    <person id="ped197" depart="577.64" type="ped_pedestrian">
        <walk from="-60892379#0" to="174183860"/>
    </person>
    <person id="ped198" depart="580.57" type="ped_pedestrian">
        <walk from="243808874#0" to="1037941154#1"/>
    </person>
    <person id="ped199" depart="583.50" type="ped_pedestrian">
        <walk from="-725928446#0" to="-422253680#0"/>
    </person>
    <person id="ped200" depart="586.44" type="ped_pedestrian">
        <walk from="1037941158" to="60892331#4"/>
    </person>
    <person id="ped201" depart="589.37" type="ped_pedestrian">
        <walk from="576073386#0" to="-243808884#2"/>
    </person>
    <person id="ped202" depart="592.30" type="ped_pedestrian">
        <walk from="-174183924#0" to="174124162"/>
    </person>
    <person id="ped203" depart="595.23" type="ped_pedestrian">
        <walk from="243803403#0" to="-590843153#1"/>
    </person>
    <person id="ped204" depart="598.16" type="ped_pedestrian">
        <walk from="576073400#1" to="460241214#1"/>
    </person>
    <person id="ped205" depart="601.10" type="ped_pedestrian">
        <walk from="243808883#3" to="-422253681#5"/>
    </person>
    <person id="ped206" depart="604.03" type="ped_pedestrian">
        <walk from="-29989867#4" to="-174124168#5"/>
    </person>
    <person id="ped207" depart="606.96" type="ped_pedestrian">
        <walk from="-460241214#9" to="1037941159"/>
    </person>
    <person id="ped208" depart="609.89" type="ped_pedestrian">
        <walk from="590843150#3" to="-174183769"/>
    </person>
    <person id="ped209" depart="612.82" type="ped_pedestrian">
        <walk from="-60892356#1" to="234827666#2"/>
    </person>
    <person id="ped210" depart="615.76" type="ped_pedestrian">
        <walk from="-29989867#0" to="29989812#0"/>
    </person>
    <person id="ped211" depart="618.69" type="ped_pedestrian">
        <walk from="1108613228" to="-460241214#8"/>
    </person>
    <person id="ped212" depart="621.62" type="ped_pedestrian">
        <walk from="243808874#2" to="-1037941155"/>
    </person>
    <person id="ped213" depart="624.55" type="ped_pedestrian">
        <walk from="460241214#0" to="515362686#0"/>
    </person>
    <person id="ped214" depart="627.49" type="ped_pedestrian">
        <walk from="-174184224#0" to="-60892363#2"/>
    </person>
    <person id="ped215" depart="630.42" type="ped_pedestrian">
        <walk from="-243809606#1" to="60892379#2"/>
    </person>
    <person id="ped216" depart="633.35" type="ped_pedestrian">
        <walk from="174124168#0" to="-174124184#1"/>
    </person>
    <person id="ped217" depart="636.28" type="ped_pedestrian">
        <walk from="-506297706#3" to="590843150#2"/>
    </person>
    <person id="ped218" depart="639.21" type="ped_pedestrian">
        <walk from="-726172849" to="576073386#4"/>
    </person>
    <person id="ped219" depart="642.15" type="ped_pedestrian">
        <walk from="243808880#0" to="726172848"/>
    </person>
    <person id="ped220" depart="645.08" type="ped_pedestrian">
        <walk from="174184031#4" to="60892363#1"/>
    </person>
    <person id="ped221" depart="648.01" type="ped_pedestrian">
        <walk from="60892327" to="174184224#3"/>
    </person>
    <person id="ped222" depart="650.94" type="ped_pedestrian">
        <walk from="390666299" to="174124148#2"/>
    </person>
    <person id="ped223" depart="653.88" type="ped_pedestrian">
        <walk from="578954743#1" to="174124183#1"/>
    </person>
    <person id="ped224" depart="656.81" type="ped_pedestrian">
        <walk from="60892331#1" to="422253682#4"/>
    </person>
    <person id="ped225" depart="659.74" type="ped_pedestrian">
        <walk from="1037941159" to="-515366120#2"/>
    </person>